
OS:Version,
  {5f8ebf45-77a5-43bf-bdf2-4368847a4a32}, !- Handle
  2.8.0;                                  !- Version Identifier

OS:RunPeriod,
  {c6d9caad-cd29-4cf7-9247-7ba1eee5c82c}, !- Handle
  Run Period 1,                           !- Name
  1,                                      !- Begin Month
  1,                                      !- Begin Day of Month
  12,                                     !- End Month
  31,                                     !- End Day of Month
  ,                                       !- Use Weather File Holidays and Special Days
  ,                                       !- Use Weather File Daylight Saving Period
  ,                                       !- Apply Weekend Holiday Rule
  ,                                       !- Use Weather File Rain Indicators
  ,                                       !- Use Weather File Snow Indicators
  ;                                       !- Number of Times Runperiod to be Repeated

OS:Timestep,
  {3fe93d49-40a0-4beb-b276-fdd627f28683}, !- Handle
  6;                                      !- Number of Timesteps per Hour

OS:Building,
  {1eec8a80-2f89-497f-9e32-213ac757f2ad}, !- Handle
  Building 1,                             !- Name
  ,                                       !- Building Sector Type
  0,                                      !- North Axis {deg}
  ,                                       !- Nominal Floor to Floor Height {m}
  ,                                       !- Space Type Name
  ,                                       !- Default Construction Set Name
  ;                                       !- Default Schedule Set Name

OS:Site,
  {94b7c7d4-51ff-4aae-90d3-37e3e8ff08cb}, !- Handle
  409079	-,                               !- Name
  -6.204,                                 !- Latitude {deg}
  106.821,                                !- Longitude {deg}
  7,                                      !- Time Zone {hr}
  10,                                     !- Elevation {m}
  City;                                   !- Terrain

OS:WeatherFile,
  {23aab813-ffe3-41d6-8322-350c1bf33e26}, !- Handle
  409079,                                 !- City
  Jakarta_Downtown,                       !- State Province Region
  -,                                      !- Country
  Tmy2,                                   !- Data Source
  -,                                      !- WMO Number
  -6.204,                                 !- Latitude {deg}
  106.821,                                !- Longitude {deg}
  7,                                      !- Time Zone {hr}
  10,                                     !- Elevation {m}
  file:///C:/ladybug/resources/Jakarta_Downtown.epw, !- Url
  CC499455;                               !- Checksum

OS:SimulationControl,
  {b49d1112-f6ec-4d25-be97-ceb3478778eb}, !- Handle
  Yes,                                    !- Do Zone Sizing Calculation
  Yes,                                    !- Do System Sizing Calculation
  Yes,                                    !- Do Plant Sizing Calculation
  No,                                     !- Run Simulation for Sizing Periods
  Yes,                                    !- Run Simulation for Weather File Run Periods
  ,                                       !- Loads Convergence Tolerance Value
  ,                                       !- Temperature Convergence Tolerance Value {deltaC}
  FullInteriorAndExteriorWithReflections; !- Solar Distribution

OS:ShadowCalculation,
  {75212caa-87e8-4092-abc7-547d9ea67bba}, !- Handle
  30,                                     !- Calculation Frequency
  3000;                                   !- Maximum Figures in Shadow Overlap Calculations

OS:Sizing:Parameters,
  {355b3da3-6cc8-4cce-bbec-e869517a32d0}, !- Handle
  1.25,                                   !- Heating Sizing Factor
  1.15;                                   !- Cooling Sizing Factor

OS:SizingPeriod:DesignDay,
  {5137a50e-057f-4f7b-a012-82489fe58e52}, !- Handle
  Jakarta Soekarno Hatta Ann Htg 99% Condns DB, !- Name
  22.7,                                   !- Maximum Dry-Bulb Temperature {C}
  0,                                      !- Daily Dry-Bulb Temperature Range {deltaC}
  22.7,                                   !- Humidity Indicating Conditions at Maximum Dry-Bulb
  101301,                                 !- Barometric Pressure {Pa}
  1.9,                                    !- Wind Speed {m/s}
  320,                                    !- Wind Direction {deg}
  0,                                      !- Sky Clearness
  0,                                      !- Rain Indicator
  0,                                      !- Snow Indicator
  21,                                     !- Day of Month
  2,                                      !- Month
  WinterDesignDay,                        !- Day Type
  0,                                      !- Daylight Saving Time Indicator
  Wetbulb,                                !- Humidity Indicating Type
  ,                                       !- Humidity Indicating Day Schedule Name
  DefaultMultipliers,                     !- Dry-Bulb Temperature Range Modifier Type
  ,                                       !- Dry-Bulb Temperature Range Modifier Schedule Name
  ASHRAEClearSky;                         !- Solar Model Indicator

OS:SizingPeriod:DesignDay,
  {b2a95029-331f-4cb0-b76c-e870b8afef2b}, !- Handle
  Jakarta Soekarno Hatta Ann Clg 1% Condns DB=>MWB, !- Name
  33.1,                                   !- Maximum Dry-Bulb Temperature {C}
  7.1,                                    !- Daily Dry-Bulb Temperature Range {deltaC}
  25.8,                                   !- Humidity Indicating Conditions at Maximum Dry-Bulb
  101301,                                 !- Barometric Pressure {Pa}
  6.7,                                    !- Wind Speed {m/s}
  60,                                     !- Wind Direction {deg}
  0,                                      !- Sky Clearness
  0,                                      !- Rain Indicator
  0,                                      !- Snow Indicator
  21,                                     !- Day of Month
  8,                                      !- Month
  SummerDesignDay,                        !- Day Type
  0,                                      !- Daylight Saving Time Indicator
  Wetbulb,                                !- Humidity Indicating Type
  ,                                       !- Humidity Indicating Day Schedule Name
  DefaultMultipliers,                     !- Dry-Bulb Temperature Range Modifier Type
  ,                                       !- Dry-Bulb Temperature Range Modifier Schedule Name
  ASHRAETau,                              !- Solar Model Indicator
  ,                                       !- Beam Solar Day Schedule Name
  ,                                       !- Diffuse Solar Day Schedule Name
  0.382,                                  !- ASHRAE Taub {dimensionless}
  2.521;                                  !- ASHRAE Taud {dimensionless}

OS:BuildingStory,
  {90fccb0a-6955-4e3e-8ebf-a97fce3a80ba}, !- Handle
  Building Story 1,                       !- Name
  6.9,                                    !- Nominal Z Coordinate {m}
  ,                                       !- Nominal Floor to Floor Height {m}
  ,                                       !- Default Construction Set Name
  ,                                       !- Default Schedule Set Name
  ;                                       !- Group Rendering Name

OS:BuildingStory,
  {d0a520d2-f367-434b-b0f0-2ec8fa43042d}, !- Handle
  Building Story 2,                       !- Name
  7.2,                                    !- Nominal Z Coordinate {m}
  ,                                       !- Nominal Floor to Floor Height {m}
  ,                                       !- Default Construction Set Name
  ,                                       !- Default Schedule Set Name
  ;                                       !- Group Rendering Name

OS:BuildingStory,
  {fe21813f-9213-41f0-b1a1-cb3759244723}, !- Handle
  Building Story 3,                       !- Name
  10,                                     !- Nominal Z Coordinate {m}
  ,                                       !- Nominal Floor to Floor Height {m}
  ,                                       !- Default Construction Set Name
  ,                                       !- Default Schedule Set Name
  ;                                       !- Group Rendering Name

OS:Material,
  {41355755-4a0c-45ea-ab31-a0d94e93a0bb}, !- Handle
  F16 Acoustic tile,                      !- Name
  MediumSmooth,                           !- Roughness
  0.0191,                                 !- Thickness {m}
  0.06,                                   !- Conductivity {W/m-K}
  368,                                    !- Density {kg/m3}
  590.000000000002,                       !- Specific Heat {J/kg-K}
  0.9,                                    !- Thermal Absorptance
  0.3;                                    !- Solar Absorptance

OS:Material:AirGap,
  {10ca26e5-8685-4d68-a2e3-c3a040db2b4c}, !- Handle
  Material Air Gap 1,                     !- Name
  0.18;                                   !- Thermal Resistance {m2-K/W}

OS:Material,
  {a026bee9-0606-4461-867a-69a827c9b897}, !- Handle
  M11 100mm lightweight concrete,         !- Name
  MediumRough,                            !- Roughness
  0.1016,                                 !- Thickness {m}
  0.53,                                   !- Conductivity {W/m-K}
  1280,                                   !- Density {kg/m3}
  840.000000000002,                       !- Specific Heat {J/kg-K}
  0.9,                                    !- Thermal Absorptance
  0.5;                                    !- Solar Absorptance

OS:Construction,
  {f46ac750-16b6-415f-a2aa-e14fdbe49f9d}, !- Handle
  Interior Floor,                         !- Name
  ,                                       !- Surface Rendering Name
  {41355755-4a0c-45ea-ab31-a0d94e93a0bb}, !- Layer 1
  {10ca26e5-8685-4d68-a2e3-c3a040db2b4c}, !- Layer 2
  {a026bee9-0606-4461-867a-69a827c9b897}; !- Layer 3

OS:Construction,
  {8b1c22d8-0e61-4eef-9371-cb8ac86f885b}, !- Handle
  Interior Ceiling,                       !- Name
  ,                                       !- Surface Rendering Name
  {a026bee9-0606-4461-867a-69a827c9b897}, !- Layer 1
  {10ca26e5-8685-4d68-a2e3-c3a040db2b4c}, !- Layer 2
  {41355755-4a0c-45ea-ab31-a0d94e93a0bb}; !- Layer 3

OS:WindowMaterial:SimpleGlazingSystem,
  {cc43f050-0170-4af4-b04c-06c35e4c0ec8}, !- Handle
  DOUBLE GLASS,                           !- Name
  1.5,                                    !- U-Factor {W/m2-K}
  0.3,                                    !- Solar Heat Gain Coefficient
  0.5;                                    !- Visible Transmittance

OS:Construction,
  {4eda6f00-332a-44ca-a338-b4fea0d06f6b}, !- Handle
  doubleglass,                            !- Name
  ,                                       !- Surface Rendering Name
  {cc43f050-0170-4af4-b04c-06c35e4c0ec8}; !- Layer 1

OS:Material,
  {febc1fb4-6ebf-45dd-a9bb-156aa3d422d3}, !- Handle
  PLASTER BOARD,                          !- Name
  MediumSmooth,                           !- Roughness
  0.0095,                                 !- Thickness {m}
  0.58,                                   !- Conductivity {W/m-K}
  800,                                    !- Density {kg/m3}
  1090,                                   !- Specific Heat {J/kg-K}
  0.9,                                    !- Thermal Absorptance
  0.7;                                    !- Solar Absorptance

OS:Material,
  {db7990a2-e82d-4426-8396-b2023462ad29}, !- Handle
  M11 100MM LIGHTWEIGHT CONCRETE 1,       !- Name
  MediumRough,                            !- Roughness
  0.1016,                                 !- Thickness {m}
  0.53,                                   !- Conductivity {W/m-K}
  1280,                                   !- Density {kg/m3}
  840.000000000002,                       !- Specific Heat {J/kg-K}
  0.9,                                    !- Thermal Absorptance
  0.5;                                    !- Solar Absorptance

OS:Material,
  {ce4fd4e7-a53b-40b8-b52a-2811ee9f9fac}, !- Handle
  I02 INSULATION BOARD,                   !- Name
  MediumRough,                            !- Roughness
  0.15,                                   !- Thickness {m}
  0.03,                                   !- Conductivity {W/m-K}
  265,                                    !- Density {kg/m3}
  836,                                    !- Specific Heat {J/kg-K}
  0.9,                                    !- Thermal Absorptance
  0.78;                                   !- Solar Absorptance

OS:Material,
  {2f600a1f-ec08-4e66-9dbd-d9319c8097d0}, !- Handle
  1/2IN GYPSUM,                           !- Name
  Smooth,                                 !- Roughness
  0.0127,                                 !- Thickness {m}
  0.16,                                   !- Conductivity {W/m-K}
  784.9,                                  !- Density {kg/m3}
  830.000000000001,                       !- Specific Heat {J/kg-K}
  0.9,                                    !- Thermal Absorptance
  0.4;                                    !- Solar Absorptance

OS:Construction,
  {70a058ec-3789-4e29-b479-938144169a8c}, !- Handle
  OPTIMUM WALL CONSTRUCTION,              !- Name
  ,                                       !- Surface Rendering Name
  {febc1fb4-6ebf-45dd-a9bb-156aa3d422d3}, !- Layer 1
  {db7990a2-e82d-4426-8396-b2023462ad29}, !- Layer 2
  {ce4fd4e7-a53b-40b8-b52a-2811ee9f9fac}, !- Layer 3
  {2f600a1f-ec08-4e66-9dbd-d9319c8097d0}; !- Layer 4

OS:Construction,
  {7f6c5977-c3f0-4762-bdd7-331efdde0a97}, !- Handle
  EXTERIOR ROOF,                          !- Name
  ,                                       !- Surface Rendering Name
  {a026bee9-0606-4461-867a-69a827c9b897}, !- Layer 1
  {10ca26e5-8685-4d68-a2e3-c3a040db2b4c}, !- Layer 2
  {41355755-4a0c-45ea-ab31-a0d94e93a0bb}; !- Layer 3

OS:DefaultConstructionSet,
  {885da772-76ab-41f7-b751-2b10e11d8785}, !- Handle
  Default Construction Set 1,             !- Name
  {58ef9ef0-bf90-4444-af1b-302cd821fbfa}, !- Default Exterior Surface Constructions Name
  {e9791027-d447-4848-8cff-424f2314c3fb}, !- Default Interior Surface Constructions Name
  {d0c91b54-3332-4e82-8d2e-62e8d4710204}, !- Default Ground Contact Surface Constructions Name
  {98631774-8c2e-4344-8dfe-e0fc457786a1}, !- Default Exterior SubSurface Constructions Name
  {ed6cb89a-0c1b-4798-9d1e-2357e5666882}, !- Default Interior SubSurface Constructions Name
  ,                                       !- Interior Partition Construction Name
  ,                                       !- Space Shading Construction Name
  ,                                       !- Building Shading Construction Name
  ,                                       !- Site Shading Construction Name
  ;                                       !- Adiabatic Surface Construction Name

OS:DefaultSurfaceConstructions,
  {58ef9ef0-bf90-4444-af1b-302cd821fbfa}, !- Handle
  Default Surface Constructions 1,        !- Name
  {f46ac750-16b6-415f-a2aa-e14fdbe49f9d}, !- Floor Construction Name
  {70a058ec-3789-4e29-b479-938144169a8c}, !- Wall Construction Name
  {7f6c5977-c3f0-4762-bdd7-331efdde0a97}; !- Roof Ceiling Construction Name

OS:DefaultSurfaceConstructions,
  {e9791027-d447-4848-8cff-424f2314c3fb}, !- Handle
  Default Surface Constructions 2,        !- Name
  {f46ac750-16b6-415f-a2aa-e14fdbe49f9d}, !- Floor Construction Name
  ,                                       !- Wall Construction Name
  {8b1c22d8-0e61-4eef-9371-cb8ac86f885b}; !- Roof Ceiling Construction Name

OS:DefaultSurfaceConstructions,
  {d0c91b54-3332-4e82-8d2e-62e8d4710204}, !- Handle
  Default Surface Constructions 3,        !- Name
  ,                                       !- Floor Construction Name
  ,                                       !- Wall Construction Name
  ;                                       !- Roof Ceiling Construction Name

OS:DefaultSubSurfaceConstructions,
  {98631774-8c2e-4344-8dfe-e0fc457786a1}, !- Handle
  Default Sub Surface Constructions 1,    !- Name
  {4eda6f00-332a-44ca-a338-b4fea0d06f6b}, !- Fixed Window Construction Name
  ,                                       !- Operable Window Construction Name
  ,                                       !- Door Construction Name
  ,                                       !- Glass Door Construction Name
  ,                                       !- Overhead Door Construction Name
  ,                                       !- Skylight Construction Name
  ,                                       !- Tubular Daylight Dome Construction Name
  ;                                       !- Tubular Daylight Diffuser Construction Name

OS:DefaultSubSurfaceConstructions,
  {ed6cb89a-0c1b-4798-9d1e-2357e5666882}, !- Handle
  Default Sub Surface Constructions 2,    !- Name
  ,                                       !- Fixed Window Construction Name
  ,                                       !- Operable Window Construction Name
  ,                                       !- Door Construction Name
  ,                                       !- Glass Door Construction Name
  ,                                       !- Overhead Door Construction Name
  ,                                       !- Skylight Construction Name
  ,                                       !- Tubular Daylight Dome Construction Name
  ;                                       !- Tubular Daylight Diffuser Construction Name

OS:Space,
  {9f7bfdba-cfe2-4051-8f80-dfae55fcd98d}, !- Handle
  roof_space,                             !- Name
  {c6bc7f69-1130-4384-a5ad-7bc9cb5364d3}, !- Space Type Name
  {885da772-76ab-41f7-b751-2b10e11d8785}, !- Default Construction Set Name
  ,                                       !- Default Schedule Set Name
  ,                                       !- Direction of Relative North {deg}
  ,                                       !- X Origin {m}
  ,                                       !- Y Origin {m}
  ,                                       !- Z Origin {m}
  {fe21813f-9213-41f0-b1a1-cb3759244723}, !- Building Story Name
  {3ceabaf4-fb7d-4a2f-b8b3-0977acfbb922}; !- Thermal Zone Name

OS:SpaceType,
  {c6bc7f69-1130-4384-a5ad-7bc9cb5364d3}, !- Handle
  Office:OpenOffice:roof,                 !- Name
  ,                                       !- Default Construction Set Name
  {6932f096-feaa-4044-887b-a274b758cede}, !- Default Schedule Set Name
  ,                                       !- Group Rendering Name
  {7380829a-62ef-4a10-8178-acf82ab2167a}; !- Design Specification Outdoor Air Object Name

OS:DefaultScheduleSet,
  {6932f096-feaa-4044-887b-a274b758cede}, !- Handle
  roof_DefaultScheduleSet,                !- Name
  {6cc82c23-8e76-4ea5-a35e-b4e10424e9f0}, !- Hours of Operation Schedule Name
  ,                                       !- Number of People Schedule Name
  {80510dd7-3e07-4ac9-9afe-7a3a3e476a23}, !- People Activity Level Schedule Name
  {33719bc5-781f-4c38-bf25-058b064ccdba}, !- Lighting Schedule Name
  {bbebc31c-2137-44bf-8432-7bf4c6c01fc3}, !- Electric Equipment Schedule Name
  ,                                       !- Gas Equipment Schedule Name
  ,                                       !- Hot Water Equipment Schedule Name
  {6916f350-7ee5-4110-82c9-7885730aac3e}, !- Infiltration Schedule Name
  ,                                       !- Steam Equipment Schedule Name
  ;                                       !- Other Equipment Schedule Name

OS:ScheduleTypeLimits,
  {a2237d44-85e0-4b55-a90c-11ba0dde9060}, !- Handle
  Schedule Type Limits 1,                 !- Name
  0,                                      !- Lower Limit Value
  1,                                      !- Upper Limit Value
  CONTINUOUS;                             !- Numeric Type

OS:Schedule:Year,
  {6916f350-7ee5-4110-82c9-7885730aac3e}, !- Handle
  Medium Office Infil Quarter On,         !- Name
  {a2237d44-85e0-4b55-a90c-11ba0dde9060}, !- Schedule Type Limits Name
  1,                                      !- Month 1
  3,                                      !- Day 1
  {515281fb-df5e-4206-b904-e26fe9ce1131}, !- Week Schedule Until Date 1
  12,                                     !- Month 2
  31,                                     !- Day 2
  {2a13c3e2-e079-42b6-99cd-5c038a37ba9d}; !- Week Schedule Until Date 2

OS:Schedule:Week,
  {515281fb-df5e-4206-b904-e26fe9ce1131}, !- Handle
  Schedule:Week:Daily {10ec3e5a-5294-46cc-8ada-f12e209007b8}, !- Name
  ,                                       !- Schedule Rendering Name
  {5f0a69ea-3d86-4ece-8446-b26ce72801fc}, !- Sunday Schedule:Day Name
  {5f0a69ea-3d86-4ece-8446-b26ce72801fc}, !- Monday Schedule:Day Name
  {5f0a69ea-3d86-4ece-8446-b26ce72801fc}, !- Tuesday Schedule:Day Name
  {5f0a69ea-3d86-4ece-8446-b26ce72801fc}, !- Wednesday Schedule:Day Name
  {5f0a69ea-3d86-4ece-8446-b26ce72801fc}, !- Thursday Schedule:Day Name
  {5f0a69ea-3d86-4ece-8446-b26ce72801fc}, !- Friday Schedule:Day Name
  {a429bf28-03f7-45c6-93aa-583c07891dfe}, !- Saturday Schedule:Day Name
  {5f0a69ea-3d86-4ece-8446-b26ce72801fc}, !- Holiday Schedule:Day Name
  {3fcdef0e-8900-4487-97a6-0991a9e720bc}, !- SummerDesignDay Schedule:Day Name
  {b432116b-b35a-4d9a-a5f8-4a1aa54623c8}, !- WinterDesignDay Schedule:Day Name
  {5f0a69ea-3d86-4ece-8446-b26ce72801fc}, !- CustomDay1 Schedule:Day Name
  {5f0a69ea-3d86-4ece-8446-b26ce72801fc}; !- CustomDay2 Schedule:Day Name

OS:Schedule:Day,
  {5f0a69ea-3d86-4ece-8446-b26ce72801fc}, !- Handle
  Medium Office Infil Quarter On Default Schedule, !- Name
  {a2237d44-85e0-4b55-a90c-11ba0dde9060}, !- Schedule Type Limits Name
  ,                                       !- Interpolate to Timestep
  6,                                      !- Hour 1
  0,                                      !- Minute 1
  1,                                      !- Value Until Time 1
  22,                                     !- Hour 2
  0,                                      !- Minute 2
  0.25,                                   !- Value Until Time 2
  24,                                     !- Hour 3
  0,                                      !- Minute 3
  1;                                      !- Value Until Time 3

OS:Schedule:Day,
  {a429bf28-03f7-45c6-93aa-583c07891dfe}, !- Handle
  Medium Office Infil Quarter On Rule 2 Day Schedule, !- Name
  {a2237d44-85e0-4b55-a90c-11ba0dde9060}, !- Schedule Type Limits Name
  ,                                       !- Interpolate to Timestep
  6,                                      !- Hour 1
  0,                                      !- Minute 1
  1,                                      !- Value Until Time 1
  18,                                     !- Hour 2
  0,                                      !- Minute 2
  0.25,                                   !- Value Until Time 2
  24,                                     !- Hour 3
  0,                                      !- Minute 3
  1;                                      !- Value Until Time 3

OS:Schedule:Day,
  {3fcdef0e-8900-4487-97a6-0991a9e720bc}, !- Handle
  Medium Office Infil Quarter On Summer Design Day, !- Name
  {a2237d44-85e0-4b55-a90c-11ba0dde9060}, !- Schedule Type Limits Name
  ,                                       !- Interpolate to Timestep
  6,                                      !- Hour 1
  0,                                      !- Minute 1
  1,                                      !- Value Until Time 1
  22,                                     !- Hour 2
  0,                                      !- Minute 2
  0.25,                                   !- Value Until Time 2
  24,                                     !- Hour 3
  0,                                      !- Minute 3
  1;                                      !- Value Until Time 3

OS:Schedule:Day,
  {b432116b-b35a-4d9a-a5f8-4a1aa54623c8}, !- Handle
  Medium Office Infil Quarter On Winter Design Day, !- Name
  {a2237d44-85e0-4b55-a90c-11ba0dde9060}, !- Schedule Type Limits Name
  ,                                       !- Interpolate to Timestep
  6,                                      !- Hour 1
  0,                                      !- Minute 1
  1,                                      !- Value Until Time 1
  18,                                     !- Hour 2
  0,                                      !- Minute 2
  0.25,                                   !- Value Until Time 2
  24,                                     !- Hour 3
  0,                                      !- Minute 3
  1;                                      !- Value Until Time 3

OS:YearDescription,
  {0bf4aa01-95c6-486e-897c-c611952f3d36}; !- Handle

OS:Schedule:Week,
  {2a13c3e2-e079-42b6-99cd-5c038a37ba9d}, !- Handle
  Schedule:Week:Daily {20898e88-71dc-48a1-8bf4-30a1d78b98f6}, !- Name
  ,                                       !- Schedule Rendering Name
  {374180c6-6c69-4740-b540-9729fd5625a9}, !- Sunday Schedule:Day Name
  {5f0a69ea-3d86-4ece-8446-b26ce72801fc}, !- Monday Schedule:Day Name
  {5f0a69ea-3d86-4ece-8446-b26ce72801fc}, !- Tuesday Schedule:Day Name
  {5f0a69ea-3d86-4ece-8446-b26ce72801fc}, !- Wednesday Schedule:Day Name
  {5f0a69ea-3d86-4ece-8446-b26ce72801fc}, !- Thursday Schedule:Day Name
  {5f0a69ea-3d86-4ece-8446-b26ce72801fc}, !- Friday Schedule:Day Name
  {a429bf28-03f7-45c6-93aa-583c07891dfe}, !- Saturday Schedule:Day Name
  {5f0a69ea-3d86-4ece-8446-b26ce72801fc}, !- Holiday Schedule:Day Name
  {3fcdef0e-8900-4487-97a6-0991a9e720bc}, !- SummerDesignDay Schedule:Day Name
  {b432116b-b35a-4d9a-a5f8-4a1aa54623c8}, !- WinterDesignDay Schedule:Day Name
  {5f0a69ea-3d86-4ece-8446-b26ce72801fc}, !- CustomDay1 Schedule:Day Name
  {5f0a69ea-3d86-4ece-8446-b26ce72801fc}; !- CustomDay2 Schedule:Day Name

OS:Schedule:Day,
  {374180c6-6c69-4740-b540-9729fd5625a9}, !- Handle
  Medium Office Infil Quarter On Rule 1 Day Schedule, !- Name
  {a2237d44-85e0-4b55-a90c-11ba0dde9060}, !- Schedule Type Limits Name
  ,                                       !- Interpolate to Timestep
  24,                                     !- Hour 1
  0,                                      !- Minute 1
  1;                                      !- Value Until Time 1

OS:Schedule:Year,
  {33719bc5-781f-4c38-bf25-058b064ccdba}, !- Handle
  Office Bldg Light,                      !- Name
  {a2237d44-85e0-4b55-a90c-11ba0dde9060}, !- Schedule Type Limits Name
  1,                                      !- Month 1
  3,                                      !- Day 1
  {4ef7accd-fd62-41e3-a137-bf414f07fa92}, !- Week Schedule Until Date 1
  12,                                     !- Month 2
  31,                                     !- Day 2
  {177c30b8-c462-44b1-999d-efee030d96fb}; !- Week Schedule Until Date 2

OS:Schedule:Week,
  {4ef7accd-fd62-41e3-a137-bf414f07fa92}, !- Handle
  Schedule:Week:Daily {77782ce5-1a70-49a7-b72d-db0988271982}, !- Name
  ,                                       !- Schedule Rendering Name
  {c9658fe6-e009-4c9b-903a-728d3df8b9f4}, !- Sunday Schedule:Day Name
  {c9658fe6-e009-4c9b-903a-728d3df8b9f4}, !- Monday Schedule:Day Name
  {c9658fe6-e009-4c9b-903a-728d3df8b9f4}, !- Tuesday Schedule:Day Name
  {c9658fe6-e009-4c9b-903a-728d3df8b9f4}, !- Wednesday Schedule:Day Name
  {c9658fe6-e009-4c9b-903a-728d3df8b9f4}, !- Thursday Schedule:Day Name
  {c9658fe6-e009-4c9b-903a-728d3df8b9f4}, !- Friday Schedule:Day Name
  {da6291df-4afd-47da-b6d9-c3f98b271842}, !- Saturday Schedule:Day Name
  {c9658fe6-e009-4c9b-903a-728d3df8b9f4}, !- Holiday Schedule:Day Name
  {58650df9-f558-45de-8023-144e74e8815d}, !- SummerDesignDay Schedule:Day Name
  {2ad0007e-ce67-4bd1-b7e6-9744d2a1dee1}, !- WinterDesignDay Schedule:Day Name
  {c9658fe6-e009-4c9b-903a-728d3df8b9f4}, !- CustomDay1 Schedule:Day Name
  {c9658fe6-e009-4c9b-903a-728d3df8b9f4}; !- CustomDay2 Schedule:Day Name

OS:Schedule:Day,
  {c9658fe6-e009-4c9b-903a-728d3df8b9f4}, !- Handle
  Office Bldg Light Default Schedule,     !- Name
  {a2237d44-85e0-4b55-a90c-11ba0dde9060}, !- Schedule Type Limits Name
  ,                                       !- Interpolate to Timestep
  5,                                      !- Hour 1
  0,                                      !- Minute 1
  0.05,                                   !- Value Until Time 1
  7,                                      !- Hour 2
  0,                                      !- Minute 2
  0.1,                                    !- Value Until Time 2
  8,                                      !- Hour 3
  0,                                      !- Minute 3
  0.3,                                    !- Value Until Time 3
  17,                                     !- Hour 4
  0,                                      !- Minute 4
  0.9,                                    !- Value Until Time 4
  18,                                     !- Hour 5
  0,                                      !- Minute 5
  0.7,                                    !- Value Until Time 5
  20,                                     !- Hour 6
  0,                                      !- Minute 6
  0.5,                                    !- Value Until Time 6
  22,                                     !- Hour 7
  0,                                      !- Minute 7
  0.3,                                    !- Value Until Time 7
  23,                                     !- Hour 8
  0,                                      !- Minute 8
  0.1,                                    !- Value Until Time 8
  24,                                     !- Hour 9
  0,                                      !- Minute 9
  0.05;                                   !- Value Until Time 9

OS:Schedule:Day,
  {da6291df-4afd-47da-b6d9-c3f98b271842}, !- Handle
  Office Bldg Light Rule 2 Day Schedule,  !- Name
  {a2237d44-85e0-4b55-a90c-11ba0dde9060}, !- Schedule Type Limits Name
  ,                                       !- Interpolate to Timestep
  6,                                      !- Hour 1
  0,                                      !- Minute 1