
OS:Version,
  {f7de8437-dda2-49b1-b2ad-1876dacdca64}, !- Handle
  2.8.0;                                  !- Version Identifier

OS:RunPeriod,
  {b7af8297-39a0-43d6-98b7-d0c0ae20fa26}, !- Handle
  Run Period 1,                           !- Name
  1,                                      !- Begin Month
  1,                                      !- Begin Day of Month
  12,                                     !- End Month
  31,                                     !- End Day of Month
  ,                                       !- Use Weather File Holidays and Special Days
  ,                                       !- Use Weather File Daylight Saving Period
  ,                                       !- Apply Weekend Holiday Rule
  ,                                       !- Use Weather File Rain Indicators
  ,                                       !- Use Weather File Snow Indicators
  ;                                       !- Number of Times Runperiod to be Repeated

OS:Timestep,
  {1a24c7ea-8dbe-4a0e-af80-e58374ebd820}, !- Handle
  6;                                      !- Number of Timesteps per Hour

OS:Building,
  {df3ceea5-4bdf-4871-b28c-83df8adbf855}, !- Handle
  Building 1,                             !- Name
  ,                                       !- Building Sector Type
  0,                                      !- North Axis {deg}
  ,                                       !- Nominal Floor to Floor Height {m}
  ,                                       !- Space Type Name
  ,                                       !- Default Construction Set Name
  ;                                       !- Default Schedule Set Name

OS:Site,
  {323f3e5a-3bf6-4b37-b0fd-d12acf56caa2}, !- Handle
  409079	-,                               !- Name
  -6.204,                                 !- Latitude {deg}
  106.821,                                !- Longitude {deg}
  7,                                      !- Time Zone {hr}
  10,                                     !- Elevation {m}
  City;                                   !- Terrain

OS:WeatherFile,
  {cfd6db4a-7333-47db-98ce-65f2a2cc20ea}, !- Handle
  409079,                                 !- City
  Jakarta_Downtown,                       !- State Province Region
  -,                                      !- Country
  Tmy2,                                   !- Data Source
  -,                                      !- WMO Number
  -6.204,                                 !- Latitude {deg}
  106.821,                                !- Longitude {deg}
  7,                                      !- Time Zone {hr}
  10,                                     !- Elevation {m}
  file:///C:/ladybug/resources/Jakarta_Downtown.epw, !- Url
  CC499455;                               !- Checksum

OS:SimulationControl,
  {08dd3b04-9a53-41ae-a7a5-427968869106}, !- Handle
  Yes,                                    !- Do Zone Sizing Calculation
  Yes,                                    !- Do System Sizing Calculation
  Yes,                                    !- Do Plant Sizing Calculation
  No,                                     !- Run Simulation for Sizing Periods
  Yes,                                    !- Run Simulation for Weather File Run Periods
  ,                                       !- Loads Convergence Tolerance Value
  ,                                       !- Temperature Convergence Tolerance Value {deltaC}
  FullInteriorAndExteriorWithReflections; !- Solar Distribution

OS:ShadowCalculation,
  {05571901-9fee-44ac-8129-4ef3e6de1cad}, !- Handle
  30,                                     !- Calculation Frequency
  3000;                                   !- Maximum Figures in Shadow Overlap Calculations

OS:Sizing:Parameters,
  {e7c65b31-3f3b-42c6-979a-8a13746419b8}, !- Handle
  1.25,                                   !- Heating Sizing Factor
  1.15;                                   !- Cooling Sizing Factor

OS:SizingPeriod:DesignDay,
  {e10772ce-53e9-457d-96e6-2fd893114768}, !- Handle
  Jakarta Soekarno Hatta Ann Htg 99% Condns DB, !- Name
  22.7,                                   !- Maximum Dry-Bulb Temperature {C}
  0,                                      !- Daily Dry-Bulb Temperature Range {deltaC}
  22.7,                                   !- Humidity Indicating Conditions at Maximum Dry-Bulb
  101301,                                 !- Barometric Pressure {Pa}
  1.9,                                    !- Wind Speed {m/s}
  320,                                    !- Wind Direction {deg}
  0,                                      !- Sky Clearness
  0,                                      !- Rain Indicator
  0,                                      !- Snow Indicator
  21,                                     !- Day of Month
  2,                                      !- Month
  WinterDesignDay,                        !- Day Type
  0,                                      !- Daylight Saving Time Indicator
  Wetbulb,                                !- Humidity Indicating Type
  ,                                       !- Humidity Indicating Day Schedule Name
  DefaultMultipliers,                     !- Dry-Bulb Temperature Range Modifier Type
  ,                                       !- Dry-Bulb Temperature Range Modifier Schedule Name
  ASHRAEClearSky;                         !- Solar Model Indicator

OS:SizingPeriod:DesignDay,
  {dd339066-210e-4569-bb58-f417a652e6eb}, !- Handle
  Jakarta Soekarno Hatta Ann Clg 1% Condns DB=>MWB, !- Name
  33.1,                                   !- Maximum Dry-Bulb Temperature {C}
  7.1,                                    !- Daily Dry-Bulb Temperature Range {deltaC}
  25.8,                                   !- Humidity Indicating Conditions at Maximum Dry-Bulb
  101301,                                 !- Barometric Pressure {Pa}
  6.7,                                    !- Wind Speed {m/s}
  60,                                     !- Wind Direction {deg}
  0,                                      !- Sky Clearness
  0,                                      !- Rain Indicator
  0,                                      !- Snow Indicator
  21,                                     !- Day of Month
  8,                                      !- Month
  SummerDesignDay,                        !- Day Type
  0,                                      !- Daylight Saving Time Indicator
  Wetbulb,                                !- Humidity Indicating Type
  ,                                       !- Humidity Indicating Day Schedule Name
  DefaultMultipliers,                     !- Dry-Bulb Temperature Range Modifier Type
  ,                                       !- Dry-Bulb Temperature Range Modifier Schedule Name
  ASHRAETau,                              !- Solar Model Indicator
  ,                                       !- Beam Solar Day Schedule Name
  ,                                       !- Diffuse Solar Day Schedule Name
  0.382,                                  !- ASHRAE Taub {dimensionless}
  2.521;                                  !- ASHRAE Taud {dimensionless}

OS:BuildingStory,
  {e16ebc88-4e08-41e7-9f14-e36a5746a24e}, !- Handle
  Building Story 1,                       !- Name
  3.6,                                    !- Nominal Z Coordinate {m}
  ,                                       !- Nominal Floor to Floor Height {m}
  ,                                       !- Default Construction Set Name
  ,                                       !- Default Schedule Set Name
  ;                                       !- Group Rendering Name

OS:BuildingStory,
  {8d8bfe6f-05dc-4f92-9ed7-32500347a803}, !- Handle
  Building Story 2,                       !- Name
  6.9,                                    !- Nominal Z Coordinate {m}
  ,                                       !- Nominal Floor to Floor Height {m}
  ,                                       !- Default Construction Set Name
  ,                                       !- Default Schedule Set Name
  ;                                       !- Group Rendering Name

OS:BuildingStory,
  {4f5fc244-8baa-48bb-bf63-1c7659ac137f}, !- Handle
  Building Story 3,                       !- Name
  7.2,                                    !- Nominal Z Coordinate {m}
  ,                                       !- Nominal Floor to Floor Height {m}
  ,                                       !- Default Construction Set Name
  ,                                       !- Default Schedule Set Name
  ;                                       !- Group Rendering Name

OS:BuildingStory,
  {d1453336-ea6d-4637-bbdc-20858451a3e3}, !- Handle
  Building Story 4,                       !- Name
  10,                                     !- Nominal Z Coordinate {m}
  ,                                       !- Nominal Floor to Floor Height {m}
  ,                                       !- Default Construction Set Name
  ,                                       !- Default Schedule Set Name
  ;                                       !- Group Rendering Name

OS:Material,
  {ac3b93c1-de6e-47c1-bc8d-931837c5db5a}, !- Handle
  F16 Acoustic tile,                      !- Name
  MediumSmooth,                           !- Roughness
  0.0191,                                 !- Thickness {m}
  0.06,                                   !- Conductivity {W/m-K}
  368,                                    !- Density {kg/m3}
  590.000000000002,                       !- Specific Heat {J/kg-K}
  0.9,                                    !- Thermal Absorptance
  0.3;                                    !- Solar Absorptance

OS:Material:AirGap,
  {3f5a6565-e0c9-4655-a12b-c02b19f59169}, !- Handle
  Material Air Gap 1,                     !- Name
  0.18;                                   !- Thermal Resistance {m2-K/W}

OS:Material,
  {36e183a7-1661-4793-a29d-1ea2f087f3ff}, !- Handle
  M11 100mm lightweight concrete,         !- Name
  MediumRough,                            !- Roughness
  0.1016,                                 !- Thickness {m}
  0.53,                                   !- Conductivity {W/m-K}
  1280,                                   !- Density {kg/m3}
  840.000000000002,                       !- Specific Heat {J/kg-K}
  0.9,                                    !- Thermal Absorptance
  0.5;                                    !- Solar Absorptance

OS:Construction,
  {2d16e240-6d6f-48f6-8897-5f7fc50095a8}, !- Handle
  Interior Floor,                         !- Name
  ,                                       !- Surface Rendering Name
  {ac3b93c1-de6e-47c1-bc8d-931837c5db5a}, !- Layer 1
  {3f5a6565-e0c9-4655-a12b-c02b19f59169}, !- Layer 2
  {36e183a7-1661-4793-a29d-1ea2f087f3ff}; !- Layer 3

OS:Construction,
  {ac58235f-7d20-4602-a395-a8d22029c8ef}, !- Handle
  Interior Ceiling,                       !- Name
  ,                                       !- Surface Rendering Name
  {36e183a7-1661-4793-a29d-1ea2f087f3ff}, !- Layer 1
  {3f5a6565-e0c9-4655-a12b-c02b19f59169}, !- Layer 2
  {ac3b93c1-de6e-47c1-bc8d-931837c5db5a}; !- Layer 3

OS:WindowMaterial:SimpleGlazingSystem,
  {e78ac3c5-5165-4213-b1d8-21badf1887fa}, !- Handle
  DOUBLE GLASS,                           !- Name
  1.5,                                    !- U-Factor {W/m2-K}
  0.3,                                    !- Solar Heat Gain Coefficient
  0.5;                                    !- Visible Transmittance

OS:Construction,
  {f1fb970d-3dda-4fe6-a463-fa4f8264c08d}, !- Handle
  doubleglass,                            !- Name
  ,                                       !- Surface Rendering Name
  {e78ac3c5-5165-4213-b1d8-21badf1887fa}; !- Layer 1

OS:Material,
  {1b7734ee-3245-4ded-8187-fa633c94381e}, !- Handle
  PLASTER BOARD,                          !- Name
  MediumSmooth,                           !- Roughness
  0.0095,                                 !- Thickness {m}
  0.58,                                   !- Conductivity {W/m-K}
  800,                                    !- Density {kg/m3}
  1090,                                   !- Specific Heat {J/kg-K}
  0.9,                                    !- Thermal Absorptance
  0.7;                                    !- Solar Absorptance

OS:Material,
  {154b134f-a448-46f3-a1f0-92021d9863ca}, !- Handle
  M11 100MM LIGHTWEIGHT CONCRETE 1,       !- Name
  MediumRough,                            !- Roughness
  0.1016,                                 !- Thickness {m}
  0.53,                                   !- Conductivity {W/m-K}
  1280,                                   !- Density {kg/m3}
  840.000000000002,                       !- Specific Heat {J/kg-K}
  0.9,                                    !- Thermal Absorptance
  0.5;                                    !- Solar Absorptance

OS:Material,
  {da0ade1a-6e31-4587-9439-63a37869a9f7}, !- Handle
  I02 INSULATION BOARD,                   !- Name
  MediumRough,                            !- Roughness
  0.15,                                   !- Thickness {m}
  0.03,                                   !- Conductivity {W/m-K}
  265,                                    !- Density {kg/m3}
  836,                                    !- Specific Heat {J/kg-K}
  0.9,                                    !- Thermal Absorptance
  0.78;                                   !- Solar Absorptance

OS:Material,
  {4f3ae7be-7eec-43d3-b8fe-cd52cd88f88c}, !- Handle
  1/2IN GYPSUM,                           !- Name
  Smooth,                                 !- Roughness
  0.0127,                                 !- Thickness {m}
  0.16,                                   !- Conductivity {W/m-K}
  784.9,                                  !- Density {kg/m3}
  830.000000000001,                       !- Specific Heat {J/kg-K}
  0.9,                                    !- Thermal Absorptance
  0.4;                                    !- Solar Absorptance

OS:Construction,
  {1b7eebca-a08b-464f-ad0b-1bfed2b5759c}, !- Handle
  OPTIMUM WALL CONSTRUCTION,              !- Name
  ,                                       !- Surface Rendering Name
  {1b7734ee-3245-4ded-8187-fa633c94381e}, !- Layer 1
  {154b134f-a448-46f3-a1f0-92021d9863ca}, !- Layer 2
  {da0ade1a-6e31-4587-9439-63a37869a9f7}, !- Layer 3
  {4f3ae7be-7eec-43d3-b8fe-cd52cd88f88c}; !- Layer 4

OS:Construction,
  {8d67501c-0671-474a-bbc2-e1204fafe5db}, !- Handle
  EXTERIOR ROOF,                          !- Name
  ,                                       !- Surface Rendering Name
  {36e183a7-1661-4793-a29d-1ea2f087f3ff}, !- Layer 1
  {3f5a6565-e0c9-4655-a12b-c02b19f59169}, !- Layer 2
  {ac3b93c1-de6e-47c1-bc8d-931837c5db5a}; !- Layer 3

OS:DefaultConstructionSet,
  {af8143b0-c520-47cf-9143-f77aa5d62a8e}, !- Handle
  Default Construction Set 1,             !- Name
  {6ae973f0-0dbd-44db-8609-613ca8309e5a}, !- Default Exterior Surface Constructions Name
  {e00854b3-ec8b-4aaf-bb8f-f07d1fad7c6d}, !- Default Interior Surface Constructions Name
  {421459a2-9e52-4c9f-8890-5a5046d11bd3}, !- Default Ground Contact Surface Constructions Name
  {098b9298-2c09-4ba9-b749-7dd43c7aef29}, !- Default Exterior SubSurface Constructions Name
  {c2d0a561-eb46-4676-8405-24c1e9b6b7f4}, !- Default Interior SubSurface Constructions Name
  ,                                       !- Interior Partition Construction Name
  ,                                       !- Space Shading Construction Name
  ,                                       !- Building Shading Construction Name
  ,                                       !- Site Shading Construction Name
  ;                                       !- Adiabatic Surface Construction Name

OS:DefaultSurfaceConstructions,
  {6ae973f0-0dbd-44db-8609-613ca8309e5a}, !- Handle
  Default Surface Constructions 1,        !- Name
  {2d16e240-6d6f-48f6-8897-5f7fc50095a8}, !- Floor Construction Name
  {1b7eebca-a08b-464f-ad0b-1bfed2b5759c}, !- Wall Construction Name
  {8d67501c-0671-474a-bbc2-e1204fafe5db}; !- Roof Ceiling Construction Name

OS:DefaultSurfaceConstructions,
  {e00854b3-ec8b-4aaf-bb8f-f07d1fad7c6d}, !- Handle
  Default Surface Constructions 2,        !- Name
  {2d16e240-6d6f-48f6-8897-5f7fc50095a8}, !- Floor Construction Name
  ,                                       !- Wall Construction Name
  {ac58235f-7d20-4602-a395-a8d22029c8ef}; !- Roof Ceiling Construction Name

OS:DefaultSurfaceConstructions,
  {421459a2-9e52-4c9f-8890-5a5046d11bd3}, !- Handle
  Default Surface Constructions 3,        !- Name
  ,                                       !- Floor Construction Name
  ,                                       !- Wall Construction Name
  ;                                       !- Roof Ceiling Construction Name

OS:DefaultSubSurfaceConstructions,
  {098b9298-2c09-4ba9-b749-7dd43c7aef29}, !- Handle
  Default Sub Surface Constructions 1,    !- Name
  {f1fb970d-3dda-4fe6-a463-fa4f8264c08d}, !- Fixed Window Construction Name
  ,                                       !- Operable Window Construction Name
  ,                                       !- Door Construction Name
  ,                                       !- Glass Door Construction Name
  ,                                       !- Overhead Door Construction Name
  ,                                       !- Skylight Construction Name
  ,                                       !- Tubular Daylight Dome Construction Name
  ;                                       !- Tubular Daylight Diffuser Construction Name

OS:DefaultSubSurfaceConstructions,
  {c2d0a561-eb46-4676-8405-24c1e9b6b7f4}, !- Handle
  Default Sub Surface Constructions 2,    !- Name
  ,                                       !- Fixed Window Construction Name
  ,                                       !- Operable Window Construction Name
  ,                                       !- Door Construction Name
  ,                                       !- Glass Door Construction Name
  ,                                       !- Overhead Door Construction Name
  ,                                       !- Skylight Construction Name
  ,                                       !- Tubular Daylight Dome Construction Name
  ;                                       !- Tubular Daylight Diffuser Construction Name

OS:Space,
  {eeeb7e28-62f5-4ecd-ad03-dfe536e4459b}, !- Handle
  roof_space,                             !- Name
  {183a0d19-760f-40bd-9878-0ba1dded3583}, !- Space Type Name
  {af8143b0-c520-47cf-9143-f77aa5d62a8e}, !- Default Construction Set Name
  ,                                       !- Default Schedule Set Name
  ,                                       !- Direction of Relative North {deg}
  ,                                       !- X Origin {m}
  ,                                       !- Y Origin {m}
  ,                                       !- Z Origin {m}
  {d1453336-ea6d-4637-bbdc-20858451a3e3}, !- Building Story Name
  {4bfbe9d5-0d3b-4c9f-8bc5-a7a9a320fee6}; !- Thermal Zone Name

OS:SpaceType,
  {183a0d19-760f-40bd-9878-0ba1dded3583}, !- Handle
  Office:OpenOffice:roof,                 !- Name
  ,                                       !- Default Construction Set Name
  {3821e573-ef43-494b-a3b4-3feb6d1a14ae}, !- Default Schedule Set Name
  ,                                       !- Group Rendering Name
  {5e1ebe45-18e3-4be1-a001-4e717a4ea1ee}; !- Design Specification Outdoor Air Object Name

OS:DefaultScheduleSet,
  {3821e573-ef43-494b-a3b4-3feb6d1a14ae}, !- Handle
  roof_DefaultScheduleSet,                !- Name
  {7ae72d5f-16aa-49a9-a796-f681e461501b}, !- Hours of Operation Schedule Name
  ,                                       !- Number of People Schedule Name
  {fe7ab1b2-84b5-40cf-9875-b7bed3962c15}, !- People Activity Level Schedule Name
  {15ca7d9b-4e26-42dc-857c-26b285c061f7}, !- Lighting Schedule Name
  {8e3a7f8d-9751-44ff-aef2-e1db67bc5aba}, !- Electric Equipment Schedule Name
  ,                                       !- Gas Equipment Schedule Name
  ,                                       !- Hot Water Equipment Schedule Name
  {0acb8bef-e609-45e0-a65a-b892fd76fcaf}, !- Infiltration Schedule Name
  ,                                       !- Steam Equipment Schedule Name
  ;                                       !- Other Equipment Schedule Name

OS:ScheduleTypeLimits,
  {195b1010-700f-45e6-b126-bfcd691af384}, !- Handle
  Schedule Type Limits 1,                 !- Name
  0,                                      !- Lower Limit Value
  1,                                      !- Upper Limit Value
  CONTINUOUS;                             !- Numeric Type

OS:Schedule:Year,
  {0acb8bef-e609-45e0-a65a-b892fd76fcaf}, !- Handle
  Medium Office Infil Quarter On,         !- Name
  {195b1010-700f-45e6-b126-bfcd691af384}, !- Schedule Type Limits Name
  1,                                      !- Month 1
  3,                                      !- Day 1
  {a778cc43-37c0-42ad-a369-23994c80cc35}, !- Week Schedule Until Date 1
  12,                                     !- Month 2
  31,                                     !- Day 2
  {37c82e9a-682c-4865-8442-c180ffe27b22}; !- Week Schedule Until Date 2

OS:Schedule:Week,
  {a778cc43-37c0-42ad-a369-23994c80cc35}, !- Handle
  Schedule:Week:Daily {10ec3e5a-5294-46cc-8ada-f12e209007b8}, !- Name
  ,                                       !- Schedule Rendering Name
  {9626bf66-f79d-4a40-8e08-1b2f8d870e5e}, !- Sunday Schedule:Day Name
  {9626bf66-f79d-4a40-8e08-1b2f8d870e5e}, !- Monday Schedule:Day Name
  {9626bf66-f79d-4a40-8e08-1b2f8d870e5e}, !- Tuesday Schedule:Day Name
  {9626bf66-f79d-4a40-8e08-1b2f8d870e5e}, !- Wednesday Schedule:Day Name
  {9626bf66-f79d-4a40-8e08-1b2f8d870e5e}, !- Thursday Schedule:Day Name
  {9626bf66-f79d-4a40-8e08-1b2f8d870e5e}, !- Friday Schedule:Day Name
  {f5b007c5-74bf-47dd-ba46-18af0d5b86d5}, !- Saturday Schedule:Day Name
  {9626bf66-f79d-4a40-8e08-1b2f8d870e5e}, !- Holiday Schedule:Day Name
  {8bb3c52b-d56c-4171-b094-273f7ad824d4}, !- SummerDesignDay Schedule:Day Name
  {32ff4a8e-61af-4692-a2f9-fed58632b302}, !- WinterDesignDay Schedule:Day Name
  {9626bf66-f79d-4a40-8e08-1b2f8d870e5e}, !- CustomDay1 Schedule:Day Name
  {9626bf66-f79d-4a40-8e08-1b2f8d870e5e}; !- CustomDay2 Schedule:Day Name

OS:Schedule:Day,
  {9626bf66-f79d-4a40-8e08-1b2f8d870e5e}, !- Handle
  Medium Office Infil Quarter On Default Schedule, !- Name
  {195b1010-700f-45e6-b126-bfcd691af384}, !- Schedule Type Limits Name
  ,                                       !- Interpolate to Timestep
  6,                                      !- Hour 1
  0,                                      !- Minute 1
  1,                                      !- Value Until Time 1
  22,                                     !- Hour 2
  0,                                      !- Minute 2
  0.25,                                   !- Value Until Time 2
  24,                                     !- Hour 3
  0,                                      !- Minute 3
  1;                                      !- Value Until Time 3

OS:Schedule:Day,
  {f5b007c5-74bf-47dd-ba46-18af0d5b86d5}, !- Handle
  Medium Office Infil Quarter On Rule 2 Day Schedule, !- Name
  {195b1010-700f-45e6-b126-bfcd691af384}, !- Schedule Type Limits Name
  ,                                       !- Interpolate to Timestep
  6,                                      !- Hour 1
  0,                                      !- Minute 1
  1,                                      !- Value Until Time 1
  18,                                     !- Hour 2
  0,                                      !- Minute 2
  0.25,                                   !- Value Until Time 2
  24,                                     !- Hour 3
  0,                                      !- Minute 3
  1;                                      !- Value Until Time 3

OS:Schedule:Day,
  {8bb3c52b-d56c-4171-b094-273f7ad824d4}, !- Handle
  Medium Office Infil Quarter On Summer Design Day, !- Name
  {195b1010-700f-45e6-b126-bfcd691af384}, !- Schedule Type Limits Name
  ,                                       !- Interpolate to Timestep
  6,                                      !- Hour 1
  0,                                      !- Minute 1
  1,                                      !- Value Until Time 1
  22,                                     !- Hour 2
  0,                                      !- Minute 2
  0.25,                                   !- Value Until Time 2
  24,                                     !- Hour 3
  0,                                      !- Minute 3
  1;                                      !- Value Until Time 3

OS:Schedule:Day,
  {32ff4a8e-61af-4692-a2f9-fed58632b302}, !- Handle
  Medium Office Infil Quarter On Winter Design Day, !- Name
  {195b1010-700f-45e6-b126-bfcd691af384}, !- Schedule Type Limits Name
  ,                                       !- Interpolate to Timestep
  6,                                      !- Hour 1
  0,                                      !- Minute 1
  1,                                      !- Value Until Time 1
  18,                                     !- Hour 2
  0,                                      !- Minute 2
  0.25,                                   !- Value Until Time 2
  24,                                     !- Hour 3
  0,                                      !- Minute 3
  1;                                      !- Value Until Time 3

OS:YearDescription,
  {db05d025-b18d-4a7b-8a61-9370a60ac179}; !- Handle

OS:Schedule:Week,
  {37c82e9a-682c-4865-8442-c180ffe27b22}, !- Handle
  Schedule:Week:Daily {20898e88-71dc-48a1-8bf4-30a1d78b98f6}, !- Name
  ,                                       !- Schedule Rendering Name
  {c0baf9a9-f5c7-4639-b20f-ce92fb047cdd}, !- Sunday Schedule:Day Name
  {9626bf66-f79d-4a40-8e08-1b2f8d870e5e}, !- Monday Schedule:Day Name
  {9626bf66-f79d-4a40-8e08-1b2f8d870e5e}, !- Tuesday Schedule:Day Name
  {9626bf66-f79d-4a40-8e08-1b2f8d870e5e}, !- Wednesday Schedule:Day Name
  {9626bf66-f79d-4a40-8e08-1b2f8d870e5e}, !- Thursday Schedule:Day Name
  {9626bf66-f79d-4a40-8e08-1b2f8d870e5e}, !- Friday Schedule:Day Name
  {f5b007c5-74bf-47dd-ba46-18af0d5b86d5}, !- Saturday Schedule:Day Name
  {9626bf66-f79d-4a40-8e08-1b2f8d870e5e}, !- Holiday Schedule:Day Name
  {8bb3c52b-d56c-4171-b094-273f7ad824d4}, !- SummerDesignDay Schedule:Day Name
  {32ff4a8e-61af-4692-a2f9-fed58632b302}, !- WinterDesignDay Schedule:Day Name
  {9626bf66-f79d-4a40-8e08-1b2f8d870e5e}, !- CustomDay1 Schedule:Day Name
  {9626bf66-f79d-4a40-8e08-1b2f8d870e5e}; !- CustomDay2 Schedule:Day Name

OS:Schedule:Day,
  {c0baf9a9-f5c7-4639-b20f-ce92fb047cdd}, !- Handle
  Medium Office Infil Quarter On Rule 1 Day Schedule, !- Name
  {195b1010-700f-45e6-b126-bfcd691af384}, !- Schedule Type Limits Name
  ,                                       !- Interpolate to Timestep
  24,                                     !- Hour 1
  0,                                      !- Minute 1
  1;                                      !- Value Until Time 1

OS:Schedule:Year,
  {15ca7d9b-4e26-42dc-857c-26b285c061f7}, !- Handle
  Office Bldg Light,                      !- Name
  {195b1010-700f-45e6-b126-bfcd691af384}, !- Schedule Type Limits Name
  1,                                      !- Month 1
  3,                                      !- Day 1
  {4a80bfce-f984-4bdf-a79b-83cd4353cc54}, !- Week Schedule Until Date 1
  12,                                     !- Month 2
  31,                                     !- Day 2
  {2b82a9c9-e6bc-43f0-a088-53a78aff8e76}; !- Week Schedule Until Date 2

OS:Schedule:Week,
  {4a80bfce-f984-4bdf-a79b-83cd4353cc54}, !- Handle
  Schedule:Week:Daily {77782ce5-1a70-49a7-b72d-db0988271982}, !- Name
  ,                                       !- Schedule Rendering Name
  {d3858c9c-225f-47aa-bf2d-cf7f913ce578}, !- Sunday Schedule:Day Name
  {d3858c9c-225f-47aa-bf2d-cf7f913ce578}, !- Monday Schedule:Day Name
  {d3858c9c-225f-47aa-bf2d-cf7f913ce578}, !- Tuesday Schedule:Day Name
  {d3858c9c-225f-47aa-bf2d-cf7f913ce578}, !- Wednesday Schedule:Day Name
  {d3858c9c-225f-47aa-bf2d-cf7f913ce578}, !- Thursday Schedule:Day Name
  {d3858c9c-225f-47aa-bf2d-cf7f913ce578}, !- Friday Schedule:Day Name
  {4aed3901-cbce-4655-9e34-8ee551f628ff}, !- Saturday Schedule:Day Name
  {d3858c9c-225f-47aa-bf2d-cf7f913ce578}, !- Holiday Schedule:Day Name
  {b9ccd565-261d-45b9-811c-cb53f9ada8f7}, !- SummerDesignDay Schedule:Day Name
  {79f2ec9e-7e1a-431c-a120-d60a49cf8fb6}, !- WinterDesignDay Schedule:Day Name
  {d3858c9c-225f-47aa-bf2d-cf7f913ce578}, !- CustomDay1 Schedule:Day Name
  {d3858c9c-225f-47aa-bf2d-cf7f913ce578}; !- CustomDay2 Schedule:Day Name

OS:Schedule:Day,
  {d3858c9c-225f-47aa-bf2d-cf7f913ce578}, !- Handle
  Office Bldg Light Default Schedule,     !- Name
  {195b1010-700f-45e6-b126-bfcd691af384}, !- Schedule Type Limits Name
  ,                                       !- Interpolate to Timestep
  5,                                      !- Hour 1
  0,                                      !- Minute 1
  0.05,                                   !- Value Until Time 1
  7,                                      !- Hour 2
  0,                                      !- Minute 2
  0.1,                                    !- Value Until Time 2
  8,                                      !- Hour 3
  0,                                      !- Minute 3
  0.3,                                    !- Value Until Time 3
  17,                                     !- Hour 4
  0,                                      !- Minute 4
  0.9,                                    !- Value Until Time 4
  18,                                     !- Hour 5
  0,                                      !- Minute 5
  0.7,                                    !- Value Until Time 5
  20,                                     !- Hour 6
  0,                                      !- Minute 6
  0.5,                                    !- Value Until Time 6
  22,                                     !- Hour 7
  0,                                      !- Minute 7
  0.3,                                    !- Value Until Time 7
  23,                                     !- Hour 8
  0,                                      !- Minute 8
  0.1,                                    !- Value Until Time 8
  24,                                     !- Hour 9