
OS:Version,
  {7d38529f-c61a-4f22-b5a4-d407982562a4}, !- Handle
  2.8.0;                                  !- Version Identifier

OS:RunPeriod,
  {914838dc-aaa0-4cf6-9a28-1c70d87c41de}, !- Handle
  Run Period 1,                           !- Name
  1,                                      !- Begin Month
  1,                                      !- Begin Day of Month
  12,                                     !- End Month
  31,                                     !- End Day of Month
  ,                                       !- Use Weather File Holidays and Special Days
  ,                                       !- Use Weather File Daylight Saving Period
  ,                                       !- Apply Weekend Holiday Rule
  ,                                       !- Use Weather File Rain Indicators
  ,                                       !- Use Weather File Snow Indicators
  ;                                       !- Number of Times Runperiod to be Repeated

OS:Timestep,
  {5f632346-ae9a-4af5-a722-1d1ffaed5584}, !- Handle
  6;                                      !- Number of Timesteps per Hour

OS:Building,
  {e883299f-1fc1-4df2-a462-0950c7e7d0ab}, !- Handle
  Building 1,                             !- Name
  ,                                       !- Building Sector Type
  0,                                      !- North Axis {deg}
  ,                                       !- Nominal Floor to Floor Height {m}
  ,                                       !- Space Type Name
  ,                                       !- Default Construction Set Name
  ;                                       !- Default Schedule Set Name

OS:Site,
  {2a0b2f8b-5496-42e4-b916-4ea58ffbfdd8}, !- Handle
  409079	-,                               !- Name
  -6.204,                                 !- Latitude {deg}
  106.821,                                !- Longitude {deg}
  7,                                      !- Time Zone {hr}
  10,                                     !- Elevation {m}
  City;                                   !- Terrain

OS:WeatherFile,
  {72ee863b-112b-4ad6-89fb-0ef6b480f40b}, !- Handle
  409079,                                 !- City
  Jakarta_Downtown,                       !- State Province Region
  -,                                      !- Country
  Tmy2,                                   !- Data Source
  -,                                      !- WMO Number
  -6.204,                                 !- Latitude {deg}
  106.821,                                !- Longitude {deg}
  7,                                      !- Time Zone {hr}
  10,                                     !- Elevation {m}
  file:///C:/ladybug/resources/Jakarta_Downtown.epw, !- Url
  CC499455;                               !- Checksum

OS:SimulationControl,
  {b4348b4f-5079-44ac-bbb1-e589bd1d1098}, !- Handle
  Yes,                                    !- Do Zone Sizing Calculation
  Yes,                                    !- Do System Sizing Calculation
  Yes,                                    !- Do Plant Sizing Calculation
  No,                                     !- Run Simulation for Sizing Periods
  Yes,                                    !- Run Simulation for Weather File Run Periods
  ,                                       !- Loads Convergence Tolerance Value
  ,                                       !- Temperature Convergence Tolerance Value {deltaC}
  FullInteriorAndExteriorWithReflections; !- Solar Distribution

OS:ShadowCalculation,
  {7bd12c7b-34fb-4cdb-91e8-d4335580465b}, !- Handle
  30,                                     !- Calculation Frequency
  3000;                                   !- Maximum Figures in Shadow Overlap Calculations

OS:Sizing:Parameters,
  {19ef6550-1156-4cef-9604-7cc66a4a1999}, !- Handle
  1.25,                                   !- Heating Sizing Factor
  1.15;                                   !- Cooling Sizing Factor

OS:SizingPeriod:DesignDay,
  {01a6fc24-7f8e-4b94-af61-345cd1471b95}, !- Handle
  Jakarta Soekarno Hatta Ann Htg 99% Condns DB, !- Name
  22.7,                                   !- Maximum Dry-Bulb Temperature {C}
  0,                                      !- Daily Dry-Bulb Temperature Range {deltaC}
  22.7,                                   !- Humidity Indicating Conditions at Maximum Dry-Bulb
  101301,                                 !- Barometric Pressure {Pa}
  1.9,                                    !- Wind Speed {m/s}
  320,                                    !- Wind Direction {deg}
  0,                                      !- Sky Clearness
  0,                                      !- Rain Indicator
  0,                                      !- Snow Indicator
  21,                                     !- Day of Month
  2,                                      !- Month
  WinterDesignDay,                        !- Day Type
  0,                                      !- Daylight Saving Time Indicator
  Wetbulb,                                !- Humidity Indicating Type
  ,                                       !- Humidity Indicating Day Schedule Name
  DefaultMultipliers,                     !- Dry-Bulb Temperature Range Modifier Type
  ,                                       !- Dry-Bulb Temperature Range Modifier Schedule Name
  ASHRAEClearSky;                         !- Solar Model Indicator

OS:SizingPeriod:DesignDay,
  {b4cc8f38-81d8-4f4f-9b56-e291a9b3f1e1}, !- Handle
  Jakarta Soekarno Hatta Ann Clg 1% Condns DB=>MWB, !- Name
  33.1,                                   !- Maximum Dry-Bulb Temperature {C}
  7.1,                                    !- Daily Dry-Bulb Temperature Range {deltaC}
  25.8,                                   !- Humidity Indicating Conditions at Maximum Dry-Bulb
  101301,                                 !- Barometric Pressure {Pa}
  6.7,                                    !- Wind Speed {m/s}
  60,                                     !- Wind Direction {deg}
  0,                                      !- Sky Clearness
  0,                                      !- Rain Indicator
  0,                                      !- Snow Indicator
  21,                                     !- Day of Month
  8,                                      !- Month
  SummerDesignDay,                        !- Day Type
  0,                                      !- Daylight Saving Time Indicator
  Wetbulb,                                !- Humidity Indicating Type
  ,                                       !- Humidity Indicating Day Schedule Name
  DefaultMultipliers,                     !- Dry-Bulb Temperature Range Modifier Type
  ,                                       !- Dry-Bulb Temperature Range Modifier Schedule Name
  ASHRAETau,                              !- Solar Model Indicator
  ,                                       !- Beam Solar Day Schedule Name
  ,                                       !- Diffuse Solar Day Schedule Name
  0.382,                                  !- ASHRAE Taub {dimensionless}
  2.521;                                  !- ASHRAE Taud {dimensionless}

OS:BuildingStory,
  {3f0760ca-4cd1-47d4-b8f1-7312c6292b71}, !- Handle
  Building Story 1,                       !- Name
  3.6,                                    !- Nominal Z Coordinate {m}
  ,                                       !- Nominal Floor to Floor Height {m}
  ,                                       !- Default Construction Set Name
  ,                                       !- Default Schedule Set Name
  ;                                       !- Group Rendering Name

OS:BuildingStory,
  {24006533-091b-47e7-97fd-d3637c0c45fc}, !- Handle
  Building Story 2,                       !- Name
  6.9,                                    !- Nominal Z Coordinate {m}
  ,                                       !- Nominal Floor to Floor Height {m}
  ,                                       !- Default Construction Set Name
  ,                                       !- Default Schedule Set Name
  ;                                       !- Group Rendering Name

OS:Material,
  {ab7a1484-a383-44d6-adae-3adc980eb031}, !- Handle
  F16 Acoustic tile,                      !- Name
  MediumSmooth,                           !- Roughness
  0.0191,                                 !- Thickness {m}
  0.06,                                   !- Conductivity {W/m-K}
  368,                                    !- Density {kg/m3}
  590.000000000002,                       !- Specific Heat {J/kg-K}
  0.9,                                    !- Thermal Absorptance
  0.3;                                    !- Solar Absorptance

OS:Material:AirGap,
  {5f47fb65-eccd-42e0-89a9-cf22162c2e53}, !- Handle
  Material Air Gap 1,                     !- Name
  0.18;                                   !- Thermal Resistance {m2-K/W}

OS:Material,
  {58046837-1b91-46e9-be94-cec75c6d1da8}, !- Handle
  M11 100mm lightweight concrete,         !- Name
  MediumRough,                            !- Roughness
  0.1016,                                 !- Thickness {m}
  0.53,                                   !- Conductivity {W/m-K}
  1280,                                   !- Density {kg/m3}
  840.000000000002,                       !- Specific Heat {J/kg-K}
  0.9,                                    !- Thermal Absorptance
  0.5;                                    !- Solar Absorptance

OS:Construction,
  {694e63d0-413d-4704-adaf-c72bac731a95}, !- Handle
  Interior Floor,                         !- Name
  ,                                       !- Surface Rendering Name
  {ab7a1484-a383-44d6-adae-3adc980eb031}, !- Layer 1
  {5f47fb65-eccd-42e0-89a9-cf22162c2e53}, !- Layer 2
  {58046837-1b91-46e9-be94-cec75c6d1da8}; !- Layer 3

OS:Construction,
  {69871f61-bba6-4039-9f23-d8be2ccfd641}, !- Handle
  Interior Ceiling,                       !- Name
  ,                                       !- Surface Rendering Name
  {58046837-1b91-46e9-be94-cec75c6d1da8}, !- Layer 1
  {5f47fb65-eccd-42e0-89a9-cf22162c2e53}, !- Layer 2
  {ab7a1484-a383-44d6-adae-3adc980eb031}; !- Layer 3

OS:WindowMaterial:SimpleGlazingSystem,
  {f907b671-80d1-4879-ac1f-4eb2dcfdfce3}, !- Handle
  DOUBLE GLASS,                           !- Name
  1.5,                                    !- U-Factor {W/m2-K}
  0.3,                                    !- Solar Heat Gain Coefficient
  0.5;                                    !- Visible Transmittance

OS:Construction,
  {3b166534-f558-483c-937e-f22fd017ebf5}, !- Handle
  doubleglass,                            !- Name
  ,                                       !- Surface Rendering Name
  {f907b671-80d1-4879-ac1f-4eb2dcfdfce3}; !- Layer 1

OS:Material,
  {745d245f-80a0-4c01-be6a-ef53926f5141}, !- Handle
  PLASTER BOARD,                          !- Name
  MediumSmooth,                           !- Roughness
  0.0095,                                 !- Thickness {m}
  0.58,                                   !- Conductivity {W/m-K}
  800,                                    !- Density {kg/m3}
  1090,                                   !- Specific Heat {J/kg-K}
  0.9,                                    !- Thermal Absorptance
  0.7;                                    !- Solar Absorptance

OS:Material,
  {7b004f04-4b56-4389-bfd8-8390863f0e69}, !- Handle
  M11 100MM LIGHTWEIGHT CONCRETE 1,       !- Name
  MediumRough,                            !- Roughness
  0.1016,                                 !- Thickness {m}
  0.53,                                   !- Conductivity {W/m-K}
  1280,                                   !- Density {kg/m3}
  840.000000000002,                       !- Specific Heat {J/kg-K}
  0.9,                                    !- Thermal Absorptance
  0.5;                                    !- Solar Absorptance

OS:Material,
  {9c0535fd-0402-4998-a7dc-ae92f1895bb6}, !- Handle
  I02 INSULATION BOARD,                   !- Name
  MediumRough,                            !- Roughness
  0.15,                                   !- Thickness {m}
  0.03,                                   !- Conductivity {W/m-K}
  265,                                    !- Density {kg/m3}
  836,                                    !- Specific Heat {J/kg-K}
  0.9,                                    !- Thermal Absorptance
  0.78;                                   !- Solar Absorptance

OS:Material,
  {1ce9cc04-64a8-4f33-a26f-de70a2d102a6}, !- Handle
  1/2IN GYPSUM,                           !- Name
  Smooth,                                 !- Roughness
  0.0127,                                 !- Thickness {m}
  0.16,                                   !- Conductivity {W/m-K}
  784.9,                                  !- Density {kg/m3}
  830.000000000001,                       !- Specific Heat {J/kg-K}
  0.9,                                    !- Thermal Absorptance
  0.4;                                    !- Solar Absorptance

OS:Construction,
  {f2c481b2-0822-41be-b481-1ccbe4c5064d}, !- Handle
  OPTIMUM WALL CONSTRUCTION,              !- Name
  ,                                       !- Surface Rendering Name
  {745d245f-80a0-4c01-be6a-ef53926f5141}, !- Layer 1
  {7b004f04-4b56-4389-bfd8-8390863f0e69}, !- Layer 2
  {9c0535fd-0402-4998-a7dc-ae92f1895bb6}, !- Layer 3
  {1ce9cc04-64a8-4f33-a26f-de70a2d102a6}; !- Layer 4

OS:DefaultConstructionSet,
  {dbb850d1-2c33-4572-92dd-d1c590ada7fe}, !- Handle
  Default Construction Set 1,             !- Name
  {78fcc351-4a3e-4eba-ba05-80be7ef6ab63}, !- Default Exterior Surface Constructions Name
  {1c2ca640-9075-431d-afa8-d45cd71242dc}, !- Default Interior Surface Constructions Name
  {03d73c68-4e88-4167-906d-08b95c96bbae}, !- Default Ground Contact Surface Constructions Name
  {e1f7e62d-2cce-4582-a494-94a1e6571239}, !- Default Exterior SubSurface Constructions Name
  {772b64ec-87f9-45e3-946b-edf606704b46}, !- Default Interior SubSurface Constructions Name
  ,                                       !- Interior Partition Construction Name
  ,                                       !- Space Shading Construction Name
  ,                                       !- Building Shading Construction Name
  ,                                       !- Site Shading Construction Name
  ;                                       !- Adiabatic Surface Construction Name

OS:DefaultSurfaceConstructions,
  {78fcc351-4a3e-4eba-ba05-80be7ef6ab63}, !- Handle
  Default Surface Constructions 1,        !- Name
  {694e63d0-413d-4704-adaf-c72bac731a95}, !- Floor Construction Name
  {f2c481b2-0822-41be-b481-1ccbe4c5064d}, !- Wall Construction Name
  ;                                       !- Roof Ceiling Construction Name

OS:DefaultSurfaceConstructions,
  {1c2ca640-9075-431d-afa8-d45cd71242dc}, !- Handle
  Default Surface Constructions 2,        !- Name
  {694e63d0-413d-4704-adaf-c72bac731a95}, !- Floor Construction Name
  ,                                       !- Wall Construction Name
  {69871f61-bba6-4039-9f23-d8be2ccfd641}; !- Roof Ceiling Construction Name

OS:DefaultSurfaceConstructions,
  {03d73c68-4e88-4167-906d-08b95c96bbae}, !- Handle
  Default Surface Constructions 3,        !- Name
  ,                                       !- Floor Construction Name
  ,                                       !- Wall Construction Name
  ;                                       !- Roof Ceiling Construction Name

OS:DefaultSubSurfaceConstructions,
  {e1f7e62d-2cce-4582-a494-94a1e6571239}, !- Handle
  Default Sub Surface Constructions 1,    !- Name
  {3b166534-f558-483c-937e-f22fd017ebf5}, !- Fixed Window Construction Name
  ,                                       !- Operable Window Construction Name
  ,                                       !- Door Construction Name
  ,                                       !- Glass Door Construction Name
  ,                                       !- Overhead Door Construction Name
  ,                                       !- Skylight Construction Name
  ,                                       !- Tubular Daylight Dome Construction Name
  ;                                       !- Tubular Daylight Diffuser Construction Name

OS:DefaultSubSurfaceConstructions,
  {772b64ec-87f9-45e3-946b-edf606704b46}, !- Handle
  Default Sub Surface Constructions 2,    !- Name
  ,                                       !- Fixed Window Construction Name
  ,                                       !- Operable Window Construction Name
  ,                                       !- Door Construction Name
  ,                                       !- Glass Door Construction Name
  ,                                       !- Overhead Door Construction Name
  ,                                       !- Skylight Construction Name
  ,                                       !- Tubular Daylight Dome Construction Name
  ;                                       !- Tubular Daylight Diffuser Construction Name

OS:Space,
  {008541d6-9ac4-4fb0-a9e0-c8d49bba5975}, !- Handle
  2ndflo_space,                           !- Name
  {8042786e-f278-4922-a319-7cfd588ad61d}, !- Space Type Name
  {dbb850d1-2c33-4572-92dd-d1c590ada7fe}, !- Default Construction Set Name
  ,                                       !- Default Schedule Set Name
  ,                                       !- Direction of Relative North {deg}
  ,                                       !- X Origin {m}
  ,                                       !- Y Origin {m}
  ,                                       !- Z Origin {m}
  {3f0760ca-4cd1-47d4-b8f1-7312c6292b71}, !- Building Story Name
  {600d8a90-8827-4730-95ac-b2ed6768d9f4}; !- Thermal Zone Name

OS:SpaceType,
  {8042786e-f278-4922-a319-7cfd588ad61d}, !- Handle
  Office:OpenOffice:2ndflo,               !- Name
  ,                                       !- Default Construction Set Name
  {acbdad63-d5da-4dc1-a8f0-ae5463bdb4b2}, !- Default Schedule Set Name
  ,                                       !- Group Rendering Name
  {700df272-ff45-4d01-80cc-bde16487490c}; !- Design Specification Outdoor Air Object Name

OS:DefaultScheduleSet,
  {acbdad63-d5da-4dc1-a8f0-ae5463bdb4b2}, !- Handle
  2ndflo_DefaultScheduleSet,              !- Name
  {b3307605-f803-41f0-a264-4101a4b833b8}, !- Hours of Operation Schedule Name
  ,                                       !- Number of People Schedule Name
  {10c1ffb2-7b8c-4974-bbbd-1b289f6108da}, !- People Activity Level Schedule Name
  {6acbc95c-80d5-40aa-8c87-c0b6f9f08dc4}, !- Lighting Schedule Name
  {9e096746-a86e-4bf2-8ee7-db3b51883d66}, !- Electric Equipment Schedule Name
  ,                                       !- Gas Equipment Schedule Name
  ,                                       !- Hot Water Equipment Schedule Name
  {65b49aa1-267b-485c-bcc4-17fe2c4a22ce}, !- Infiltration Schedule Name
  ,                                       !- Steam Equipment Schedule Name
  ;                                       !- Other Equipment Schedule Name

OS:ScheduleTypeLimits,
  {66fbfc60-c607-4aa1-b22f-9d764fd6dae4}, !- Handle
  Schedule Type Limits 1,                 !- Name
  0,                                      !- Lower Limit Value
  1,                                      !- Upper Limit Value
  CONTINUOUS;                             !- Numeric Type

OS:Schedule:Year,
  {65b49aa1-267b-485c-bcc4-17fe2c4a22ce}, !- Handle
  Medium Office Infil Quarter On,         !- Name
  {66fbfc60-c607-4aa1-b22f-9d764fd6dae4}, !- Schedule Type Limits Name
  1,                                      !- Month 1
  3,                                      !- Day 1
  {4db29c9c-29b3-4859-9ee0-a22e31ee4d58}, !- Week Schedule Until Date 1
  12,                                     !- Month 2
  31,                                     !- Day 2
  {c0a185c2-ca81-46e2-84e1-3fcbad6862f9}; !- Week Schedule Until Date 2

OS:Schedule:Week,
  {4db29c9c-29b3-4859-9ee0-a22e31ee4d58}, !- Handle
  Schedule:Week:Daily {10ec3e5a-5294-46cc-8ada-f12e209007b8}, !- Name
  ,                                       !- Schedule Rendering Name
  {c21d3816-ffc0-4fab-b2c5-8c01f64725c3}, !- Sunday Schedule:Day Name
  {c21d3816-ffc0-4fab-b2c5-8c01f64725c3}, !- Monday Schedule:Day Name
  {c21d3816-ffc0-4fab-b2c5-8c01f64725c3}, !- Tuesday Schedule:Day Name
  {c21d3816-ffc0-4fab-b2c5-8c01f64725c3}, !- Wednesday Schedule:Day Name
  {c21d3816-ffc0-4fab-b2c5-8c01f64725c3}, !- Thursday Schedule:Day Name
  {c21d3816-ffc0-4fab-b2c5-8c01f64725c3}, !- Friday Schedule:Day Name
  {b044b76b-372b-4a21-b5e2-72fe1fc2eb50}, !- Saturday Schedule:Day Name
  {c21d3816-ffc0-4fab-b2c5-8c01f64725c3}, !- Holiday Schedule:Day Name
  {6c405345-5f7d-445f-b962-7b9c4d8205e4}, !- SummerDesignDay Schedule:Day Name
  {2f73e2b8-e5a3-4d17-9ac8-a2c7f437cfa1}, !- WinterDesignDay Schedule:Day Name
  {c21d3816-ffc0-4fab-b2c5-8c01f64725c3}, !- CustomDay1 Schedule:Day Name
  {c21d3816-ffc0-4fab-b2c5-8c01f64725c3}; !- CustomDay2 Schedule:Day Name

OS:Schedule:Day,
  {c21d3816-ffc0-4fab-b2c5-8c01f64725c3}, !- Handle
  Medium Office Infil Quarter On Default Schedule, !- Name
  {66fbfc60-c607-4aa1-b22f-9d764fd6dae4}, !- Schedule Type Limits Name
  ,                                       !- Interpolate to Timestep
  6,                                      !- Hour 1
  0,                                      !- Minute 1
  1,                                      !- Value Until Time 1
  22,                                     !- Hour 2
  0,                                      !- Minute 2
  0.25,                                   !- Value Until Time 2
  24,                                     !- Hour 3
  0,                                      !- Minute 3
  1;                                      !- Value Until Time 3

OS:Schedule:Day,
  {b044b76b-372b-4a21-b5e2-72fe1fc2eb50}, !- Handle
  Medium Office Infil Quarter On Rule 2 Day Schedule, !- Name
  {66fbfc60-c607-4aa1-b22f-9d764fd6dae4}, !- Schedule Type Limits Name
  ,                                       !- Interpolate to Timestep
  6,                                      !- Hour 1
  0,                                      !- Minute 1
  1,                                      !- Value Until Time 1
  18,                                     !- Hour 2
  0,                                      !- Minute 2
  0.25,                                   !- Value Until Time 2
  24,                                     !- Hour 3
  0,                                      !- Minute 3
  1;                                      !- Value Until Time 3

OS:Schedule:Day,
  {6c405345-5f7d-445f-b962-7b9c4d8205e4}, !- Handle
  Medium Office Infil Quarter On Summer Design Day, !- Name
  {66fbfc60-c607-4aa1-b22f-9d764fd6dae4}, !- Schedule Type Limits Name
  ,                                       !- Interpolate to Timestep
  6,                                      !- Hour 1
  0,                                      !- Minute 1
  1,                                      !- Value Until Time 1
  22,                                     !- Hour 2
  0,                                      !- Minute 2
  0.25,                                   !- Value Until Time 2
  24,                                     !- Hour 3
  0,                                      !- Minute 3
  1;                                      !- Value Until Time 3

OS:Schedule:Day,
  {2f73e2b8-e5a3-4d17-9ac8-a2c7f437cfa1}, !- Handle
  Medium Office Infil Quarter On Winter Design Day, !- Name
  {66fbfc60-c607-4aa1-b22f-9d764fd6dae4}, !- Schedule Type Limits Name
  ,                                       !- Interpolate to Timestep
  6,                                      !- Hour 1
  0,                                      !- Minute 1
  1,                                      !- Value Until Time 1
  18,                                     !- Hour 2
  0,                                      !- Minute 2
  0.25,                                   !- Value Until Time 2
  24,                                     !- Hour 3
  0,                                      !- Minute 3
  1;                                      !- Value Until Time 3

OS:YearDescription,
  {237bef4d-43e1-4ff0-9657-99aa4eac612f}; !- Handle

OS:Schedule:Week,
  {c0a185c2-ca81-46e2-84e1-3fcbad6862f9}, !- Handle
  Schedule:Week:Daily {20898e88-71dc-48a1-8bf4-30a1d78b98f6}, !- Name
  ,                                       !- Schedule Rendering Name
  {61a361fc-fa0c-4f04-a9a6-828ee49fdb45}, !- Sunday Schedule:Day Name
  {c21d3816-ffc0-4fab-b2c5-8c01f64725c3}, !- Monday Schedule:Day Name
  {c21d3816-ffc0-4fab-b2c5-8c01f64725c3}, !- Tuesday Schedule:Day Name
  {c21d3816-ffc0-4fab-b2c5-8c01f64725c3}, !- Wednesday Schedule:Day Name
  {c21d3816-ffc0-4fab-b2c5-8c01f64725c3}, !- Thursday Schedule:Day Name
  {c21d3816-ffc0-4fab-b2c5-8c01f64725c3}, !- Friday Schedule:Day Name
  {b044b76b-372b-4a21-b5e2-72fe1fc2eb50}, !- Saturday Schedule:Day Name
  {c21d3816-ffc0-4fab-b2c5-8c01f64725c3}, !- Holiday Schedule:Day Name
  {6c405345-5f7d-445f-b962-7b9c4d8205e4}, !- SummerDesignDay Schedule:Day Name
  {2f73e2b8-e5a3-4d17-9ac8-a2c7f437cfa1}, !- WinterDesignDay Schedule:Day Name
  {c21d3816-ffc0-4fab-b2c5-8c01f64725c3}, !- CustomDay1 Schedule:Day Name
  {c21d3816-ffc0-4fab-b2c5-8c01f64725c3}; !- CustomDay2 Schedule:Day Name

OS:Schedule:Day,
  {61a361fc-fa0c-4f04-a9a6-828ee49fdb45}, !- Handle
  Medium Office Infil Quarter On Rule 1 Day Schedule, !- Name
  {66fbfc60-c607-4aa1-b22f-9d764fd6dae4}, !- Schedule Type Limits Name
  ,                                       !- Interpolate to Timestep
  24,                                     !- Hour 1
  0,                                      !- Minute 1
  1;                                      !- Value Until Time 1

OS:Schedule:Year,
  {6acbc95c-80d5-40aa-8c87-c0b6f9f08dc4}, !- Handle
  Office Bldg Light,                      !- Name
  {66fbfc60-c607-4aa1-b22f-9d764fd6dae4}, !- Schedule Type Limits Name
  1,                                      !- Month 1
  3,                                      !- Day 1
  {0b5beb54-83b3-4a45-9b61-c96b19cecd17}, !- Week Schedule Until Date 1
  12,                                     !- Month 2
  31,                                     !- Day 2
  {ed6fca2f-e3be-4d06-95a4-35d94e4219d1}; !- Week Schedule Until Date 2

OS:Schedule:Week,
  {0b5beb54-83b3-4a45-9b61-c96b19cecd17}, !- Handle
  Schedule:Week:Daily {77782ce5-1a70-49a7-b72d-db0988271982}, !- Name
  ,                                       !- Schedule Rendering Name
  {8b5b85ee-3749-49be-befa-09ad08047b08}, !- Sunday Schedule:Day Name
  {8b5b85ee-3749-49be-befa-09ad08047b08}, !- Monday Schedule:Day Name
  {8b5b85ee-3749-49be-befa-09ad08047b08}, !- Tuesday Schedule:Day Name
  {8b5b85ee-3749-49be-befa-09ad08047b08}, !- Wednesday Schedule:Day Name
  {8b5b85ee-3749-49be-befa-09ad08047b08}, !- Thursday Schedule:Day Name
  {8b5b85ee-3749-49be-befa-09ad08047b08}, !- Friday Schedule:Day Name
  {ddcb54fb-ab83-4155-937d-abde6d120c2d}, !- Saturday Schedule:Day Name
  {8b5b85ee-3749-49be-befa-09ad08047b08}, !- Holiday Schedule:Day Name
  {80bad366-b58f-4b9b-94c9-0d7801bcf597}, !- SummerDesignDay Schedule:Day Name
  {e8840a86-4bd9-4f82-be37-0d2c5d4148b9}, !- WinterDesignDay Schedule:Day Name
  {8b5b85ee-3749-49be-befa-09ad08047b08}, !- CustomDay1 Schedule:Day Name
  {8b5b85ee-3749-49be-befa-09ad08047b08}; !- CustomDay2 Schedule:Day Name

OS:Schedule:Day,
  {8b5b85ee-3749-49be-befa-09ad08047b08}, !- Handle
  Office Bldg Light Default Schedule,     !- Name
  {66fbfc60-c607-4aa1-b22f-9d764fd6dae4}, !- Schedule Type Limits Name
  ,                                       !- Interpolate to Timestep
  5,                                      !- Hour 1
  0,                                      !- Minute 1
  0.05,                                   !- Value Until Time 1
  7,                                      !- Hour 2
  0,                                      !- Minute 2
  0.1,                                    !- Value Until Time 2
  8,                                      !- Hour 3
  0,                                      !- Minute 3
  0.3,                                    !- Value Until Time 3
  17,                                     !- Hour 4
  0,                                      !- Minute 4
  0.9,                                    !- Value Until Time 4
  18,                                     !- Hour 5
  0,                                      !- Minute 5
  0.7,                                    !- Value Until Time 5
  20,                                     !- Hour 6
  0,                                      !- Minute 6
  0.5,                                    !- Value Until Time 6
  22,                                     !- Hour 7
  0,                                      !- Minute 7
  0.3,                                    !- Value Until Time 7
  23,                                     !- Hour 8
  0,                                      !- Minute 8
  0.1,                                    !- Value Until Time 8
  24,                                     !- Hour 9
  0,                                      !- Minute 9
  0.05;                                   !- Value Until Time 9

OS:Schedule:Day,
  {ddcb54fb-ab83-4155-937d-abde6d120c2d}, !- Handle
  Office Bldg Light Rule 2 Day Schedule,  !- Name
  {66fbfc60-c607-4aa1-b22f-9d764fd6dae4}, !- Schedule Type Limits Name
  ,                                       !- Interpolate to Timestep
  6,                                      !- Hour 1
  0,                                      !- Minute 1
  0.05,                                   !- Value Until Time 1
  8,                                      !- Hour 2
  0,                                      !- Minute 2
  0.1,                                    !- Value Until Time 2
  14,                                     !- Hour 3
  0,                                      !- Minute 3
  0.5,                                    !- Value Until Time 3
  17,                                     !- Hour 4
  0,                                      !- Minute 4
  0.15,                                   !- Value Until Time 4
  24,                                     !- Hour 5
  0,                                      !- Minute 5
  0.05;                                   !- Value Until Time 5

OS:Schedule:Day,
  {80bad366-b58f-4b9b-94c9-0d7801bcf597}, !- Handle