
Version,
  9.1;                                    !- Version Identifier

Timestep,
  6;                                      !- Number of Timesteps per Hour

LifeCycleCost:Parameters,
  Life Cycle Cost Parameters,             !- Name
  EndOfYear,                              !- Discounting Convention
  ConstantDollar,                         !- Inflation Approach
  0.03,                                   !- Real Discount Rate
  ,                                       !- Nominal Discount Rate
  ,                                       !- Inflation
  ,                                       !- Base Date Month
  2011,                                   !- Base Date Year
  ,                                       !- Service Date Month
  2011,                                   !- Service Date Year
  25,                                     !- Length of Study Period in Years
  ,                                       !- Tax rate
  None;                                   !- Depreciation Method

LifeCycleCost:UsePriceEscalation,
  U.S. Avg  Commercial-Electricity,       !- LCC Price Escalation Name
  Electricity,                            !- Resource
  2011,                                   !- Escalation Start Year
  January,                                !- Escalation Start Month
  0.9838,                                 !- Year Escalation 1
  0.9730,                                 !- Year Escalation 2
  0.9632,                                 !- Year Escalation 3
  0.9611,                                 !- Year Escalation 4
  0.9571,                                 !- Year Escalation 5
  0.9553,                                 !- Year Escalation 6
  0.9539,                                 !- Year Escalation 7
  0.9521,                                 !- Year Escalation 8
  0.9546,                                 !- Year Escalation 9
  0.9550,                                 !- Year Escalation 10
  0.9553,                                 !- Year Escalation 11
  0.9564,                                 !- Year Escalation 12
  0.9575,                                 !- Year Escalation 13
  0.9596,                                 !- Year Escalation 14
  0.9618,                                 !- Year Escalation 15
  0.9614,                                 !- Year Escalation 16
  0.9618,                                 !- Year Escalation 17
  0.9618,                                 !- Year Escalation 18
  0.9593,                                 !- Year Escalation 19
  0.9589,                                 !- Year Escalation 20
  0.9607,                                 !- Year Escalation 21
  0.9625,                                 !- Year Escalation 22
  0.9650,                                 !- Year Escalation 23
  0.9708,                                 !- Year Escalation 24
  0.9751,                                 !- Year Escalation 25
  0.9762,                                 !- Year Escalation 26
  0.9766,                                 !- Year Escalation 27
  0.9766,                                 !- Year Escalation 28
  0.9769,                                 !- Year Escalation 29
  0.9773;                                 !- Year Escalation 30

LifeCycleCost:UsePriceEscalation,
  U.S. Avg  Commercial-Distillate Oil,    !- LCC Price Escalation Name
  FuelOil#1,                              !- Resource
  2011,                                   !- Escalation Start Year
  January,                                !- Escalation Start Month
  0.9714,                                 !- Year Escalation 1
  0.9730,                                 !- Year Escalation 2
  0.9942,                                 !- Year Escalation 3
  1.0164,                                 !- Year Escalation 4
  1.0541,                                 !- Year Escalation 5
  1.0928,                                 !- Year Escalation 6
  1.1267,                                 !- Year Escalation 7
  1.1580,                                 !- Year Escalation 8
  1.1792,                                 !- Year Escalation 9
  1.1967,                                 !- Year Escalation 10
  1.2200,                                 !- Year Escalation 11
  1.2333,                                 !- Year Escalation 12
  1.2566,                                 !- Year Escalation 13
  1.2709,                                 !- Year Escalation 14
  1.2826,                                 !- Year Escalation 15
  1.2985,                                 !- Year Escalation 16
  1.3102,                                 !- Year Escalation 17
  1.3250,                                 !- Year Escalation 18
  1.3261,                                 !- Year Escalation 19
  1.3282,                                 !- Year Escalation 20
  1.3324,                                 !- Year Escalation 21
  1.3356,                                 !- Year Escalation 22
  1.3431,                                 !- Year Escalation 23
  1.3510,                                 !- Year Escalation 24
  1.3568,                                 !- Year Escalation 25
  1.3606,                                 !- Year Escalation 26
  1.3637,                                 !- Year Escalation 27
  1.3674,                                 !- Year Escalation 28
  1.3706,                                 !- Year Escalation 29
  1.3743;                                 !- Year Escalation 30

LifeCycleCost:UsePriceEscalation,
  U.S. Avg  Commercial-Residual Oil,      !- LCC Price Escalation Name
  FuelOil#2,                              !- Resource
  2011,                                   !- Escalation Start Year
  January,                                !- Escalation Start Month
  0.8469,                                 !- Year Escalation 1
  0.8257,                                 !- Year Escalation 2
  0.8681,                                 !- Year Escalation 3
  0.8988,                                 !- Year Escalation 4
  0.9289,                                 !- Year Escalation 5
  0.9604,                                 !- Year Escalation 6
  0.9897,                                 !- Year Escalation 7
  1.0075,                                 !- Year Escalation 8
  1.0314,                                 !- Year Escalation 9
  1.0554,                                 !- Year Escalation 10
  1.0861,                                 !- Year Escalation 11
  1.1278,                                 !- Year Escalation 12
  1.1497,                                 !- Year Escalation 13
  1.1620,                                 !- Year Escalation 14
  1.1743,                                 !- Year Escalation 15
  1.1852,                                 !- Year Escalation 16
  1.1948,                                 !- Year Escalation 17
  1.2037,                                 !- Year Escalation 18
  1.2071,                                 !- Year Escalation 19
  1.2119,                                 !- Year Escalation 20
  1.2139,                                 !- Year Escalation 21
  1.2194,                                 !- Year Escalation 22
  1.2276,                                 !- Year Escalation 23
  1.2365,                                 !- Year Escalation 24
  1.2420,                                 !- Year Escalation 25
  1.2461,                                 !- Year Escalation 26
  1.2509,                                 !- Year Escalation 27
  1.2550,                                 !- Year Escalation 28
  1.2591,                                 !- Year Escalation 29
  1.2638;                                 !- Year Escalation 30

LifeCycleCost:UsePriceEscalation,
  U.S. Avg  Commercial-Natural gas,       !- LCC Price Escalation Name
  NaturalGas,                             !- Resource
  2011,                                   !- Escalation Start Year
  January,                                !- Escalation Start Month
  0.9823,                                 !- Year Escalation 1
  0.9557,                                 !- Year Escalation 2
  0.9279,                                 !- Year Escalation 3
  0.9257,                                 !- Year Escalation 4
  0.9346,                                 !- Year Escalation 5
  0.9412,                                 !- Year Escalation 6
  0.9512,                                 !- Year Escalation 7
  0.9645,                                 !- Year Escalation 8
  0.9856,                                 !- Year Escalation 9
  1.0067,                                 !- Year Escalation 10
  1.0222,                                 !- Year Escalation 11
  1.0410,                                 !- Year Escalation 12
  1.0610,                                 !- Year Escalation 13
  1.0787,                                 !- Year Escalation 14
  1.0942,                                 !- Year Escalation 15
  1.1098,                                 !- Year Escalation 16
  1.1220,                                 !- Year Escalation 17
  1.1308,                                 !- Year Escalation 18
  1.1386,                                 !- Year Escalation 19
  1.1486,                                 !- Year Escalation 20
  1.1619,                                 !- Year Escalation 21
  1.1763,                                 !- Year Escalation 22
  1.1918,                                 !- Year Escalation 23
  1.2118,                                 !- Year Escalation 24
  1.2284,                                 !- Year Escalation 25
  1.2439,                                 !- Year Escalation 26
  1.2605,                                 !- Year Escalation 27
  1.2772,                                 !- Year Escalation 28
  1.2938,                                 !- Year Escalation 29
  1.3115;                                 !- Year Escalation 30

LifeCycleCost:UsePriceEscalation,
  U.S. Avg  Commercial-Coal,              !- LCC Price Escalation Name
  Coal,                                   !- Resource
  2011,                                   !- Escalation Start Year
  January,                                !- Escalation Start Month
  0.9970,                                 !- Year Escalation 1
  1.0089,                                 !- Year Escalation 2
  1.0089,                                 !- Year Escalation 3
  0.9941,                                 !- Year Escalation 4
  0.9941,                                 !- Year Escalation 5
  1.0000,                                 !- Year Escalation 6
  1.0030,                                 !- Year Escalation 7
  1.0059,                                 !- Year Escalation 8
  1.0089,                                 !- Year Escalation 9
  1.0119,                                 !- Year Escalation 10
  1.0148,                                 !- Year Escalation 11
  1.0178,                                 !- Year Escalation 12
  1.0208,                                 !- Year Escalation 13
  1.0267,                                 !- Year Escalation 14
  1.0297,                                 !- Year Escalation 15
  1.0356,                                 !- Year Escalation 16
  1.0415,                                 !- Year Escalation 17
  1.0534,                                 !- Year Escalation 18
  1.0564,                                 !- Year Escalation 19
  1.0593,                                 !- Year Escalation 20
  1.0653,                                 !- Year Escalation 21
  1.0712,                                 !- Year Escalation 22
  1.0742,                                 !- Year Escalation 23
  1.0801,                                 !- Year Escalation 24
  1.0831,                                 !- Year Escalation 25
  1.0831,                                 !- Year Escalation 26
  1.0861,                                 !- Year Escalation 27
  1.0890,                                 !- Year Escalation 28
  1.0920,                                 !- Year Escalation 29
  1.0950;                                 !- Year Escalation 30

Building,
  Building 1,                             !- Name
  0,                                      !- North Axis {deg}
  City,                                   !- Terrain
  ,                                       !- Loads Convergence Tolerance Value
  ,                                       !- Temperature Convergence Tolerance Value {deltaC}
  FullInteriorAndExteriorWithReflections, !- Solar Distribution
  ,                                       !- Maximum Number of Warmup Days
  ;                                       !- Minimum Number of Warmup Days

Shading:Building:Detailed,
  shdSurface_0_0,                         !- Name
  ,                                       !- Transmittance Schedule Name
  ,                                       !- Number of Vertices
  6.67902040481567, 1.71448075771332, 6.35256576538086, !- X,Y,Z Vertex 1 {m}
  6, 1.71448075771332, 6.35256576538086,  !- X,Y,Z Vertex 2 {m}
  6, 5.28551912307739, 6.35256576538086,  !- X,Y,Z Vertex 3 {m}
  6.67902040481567, 5.28551912307739, 6.35256576538086; !- X,Y,Z Vertex 4 {m}

Shading:Building:Detailed,
  shdSurface_10_0,                        !- Name
  ,                                       !- Transmittance Schedule Name
  ,                                       !- Number of Vertices
  -0.67902022600174, 5.28551912307739, 6.52232074737549, !- X,Y,Z Vertex 1 {m}
  -0.67902022600174, 5.28551912307739, 6.35256576538086, !- X,Y,Z Vertex 2 {m}
  -0.67902022600174, 1.71448075771332, 6.35256576538086, !- X,Y,Z Vertex 3 {m}
  -0.67902022600174, 1.71448075771332, 6.52232074737549; !- X,Y,Z Vertex 4 {m}

Shading:Building:Detailed,
  shdSurface_11_0,                        !- Name
  ,                                       !- Transmittance Schedule Name
  ,                                       !- Number of Vertices
  0, 1.71448075771332, 6.52232074737549,  !- X,Y,Z Vertex 1 {m}
  0, 1.71448075771332, 6.35256576538086,  !- X,Y,Z Vertex 2 {m}
  0, 5.28551912307739, 6.35256576538086,  !- X,Y,Z Vertex 3 {m}
  0, 5.28551912307739, 6.52232074737549;  !- X,Y,Z Vertex 4 {m}

Shading:Building:Detailed,
  shdSurface_12_0,                        !- Name
  ,                                       !- Transmittance Schedule Name
  ,                                       !- Number of Vertices
  4.04728317260742, 0, 7.5048975944519,   !- X,Y,Z Vertex 1 {m}
  4.04728317260742, 0, 7.19999980926514,  !- X,Y,Z Vertex 2 {m}
  1.93970084190369, 0, 7.19999980926514,  !- X,Y,Z Vertex 3 {m}
  1.93970084190369, 0, 7.5048975944519;   !- X,Y,Z Vertex 4 {m}

Shading:Building:Detailed,
  shdSurface_13_0,                        !- Name
  ,                                       !- Transmittance Schedule Name
  ,                                       !- Number of Vertices
  4.04728317260742, 0, 7.5048975944519,   !- X,Y,Z Vertex 1 {m}
  4.04728317260742, -2.50227046012878, 6.70211315155029, !- X,Y,Z Vertex 2 {m}
  4.04728317260742, -2.50227046012878, 6.40211296081543, !- X,Y,Z Vertex 3 {m}
  4.04728317260742, 0, 7.19999980926514;  !- X,Y,Z Vertex 4 {m}

Shading:Building:Detailed,
  shdSurface_14_0,                        !- Name
  ,                                       !- Transmittance Schedule Name
  ,                                       !- Number of Vertices
  1.93970084190369, 0, 7.5048975944519,   !- X,Y,Z Vertex 1 {m}
  1.93970084190369, 0, 7.19999980926514,  !- X,Y,Z Vertex 2 {m}
  1.93970084190369, -2.50227046012878, 6.40211296081543, !- X,Y,Z Vertex 3 {m}
  1.93970084190369, -2.50227046012878, 6.70211315155029; !- X,Y,Z Vertex 4 {m}

Shading:Building:Detailed,
  shdSurface_15_0,                        !- Name
  ,                                       !- Transmittance Schedule Name
  ,                                       !- Number of Vertices
  1.93970084190369, -2.50227046012878, 6.70211315155029, !- X,Y,Z Vertex 1 {m}
  1.93970084190369, -2.50227046012878, 6.40211296081543, !- X,Y,Z Vertex 2 {m}
  4.04728317260742, -2.50227046012878, 6.40211296081543, !- X,Y,Z Vertex 3 {m}
  4.04728317260742, -2.50227046012878, 6.70211315155029; !- X,Y,Z Vertex 4 {m}

Shading:Building:Detailed,
  shdSurface_16_0,                        !- Name
  ,                                       !- Transmittance Schedule Name
  ,                                       !- Number of Vertices
  1.93970084190369, 0, 7.5048975944519,   !- X,Y,Z Vertex 1 {m}
  1.93970084190369, -2.50227046012878, 6.70211315155029, !- X,Y,Z Vertex 2 {m}
  4.04728317260742, -2.50227046012878, 6.70211315155029, !- X,Y,Z Vertex 3 {m}
  4.04728317260742, 0, 7.5048975944519;   !- X,Y,Z Vertex 4 {m}

Shading:Building:Detailed,
  shdSurface_17_0,                        !- Name
  ,                                       !- Transmittance Schedule Name
  ,                                       !- Number of Vertices
  1.93970084190369, 0, 7.19999980926514,  !- X,Y,Z Vertex 1 {m}
  4.04728317260742, 0, 7.19999980926514,  !- X,Y,Z Vertex 2 {m}
  4.04728317260742, -2.50227046012878, 6.40211296081543, !- X,Y,Z Vertex 3 {m}
  1.93970084190369, -2.50227046012878, 6.40211296081543; !- X,Y,Z Vertex 4 {m}

Shading:Building:Detailed,
  shdSurface_18_0,                        !- Name
  ,                                       !- Transmittance Schedule Name
  ,                                       !- Number of Vertices
  1.93970084190369, 0, 6.65105628967285,  !- X,Y,Z Vertex 1 {m}
  1.93970084190369, 0, 6.40224933624268,  !- X,Y,Z Vertex 2 {m}
  1.93970084190369, -1.25113523006439, 6.80105638504028, !- X,Y,Z Vertex 3 {m}
  1.93970084190369, -0.870951890945435, 6.92228364944458; !- X,Y,Z Vertex 4 {m}

Shading:Building:Detailed,
  shdSurface_19_0,                        !- Name
  ,                                       !- Transmittance Schedule Name
  ,                                       !- Number of Vertices
  4.04728317260742, -0.870951890945435, 6.92228364944458, !- X,Y,Z Vertex 1 {m}
  4.04728317260742, 0, 6.65105628967285,  !- X,Y,Z Vertex 2 {m}
  4.04728317260742, 0, 6.40211296081543,  !- X,Y,Z Vertex 3 {m}
  4.04728317260742, -1.25113523006439, 6.80105638504028; !- X,Y,Z Vertex 4 {m}

Shading:Building:Detailed,
  shdSurface_1_0,                         !- Name
  ,                                       !- Transmittance Schedule Name
  ,                                       !- Number of Vertices
  6.67902040481567, 5.28551912307739, 6.52232074737549, !- X,Y,Z Vertex 1 {m}
  6.67902040481567, 5.28551912307739, 6.35256576538086, !- X,Y,Z Vertex 2 {m}
  6, 5.28551912307739, 6.35256576538086,  !- X,Y,Z Vertex 3 {m}
  6, 5.28551912307739, 6.52232074737549;  !- X,Y,Z Vertex 4 {m}

Shading:Building:Detailed,
  shdSurface_20_0,                        !- Name
  ,                                       !- Transmittance Schedule Name
  ,                                       !- Number of Vertices
  1.93970084190369, 0, 6.90000009536743,  !- X,Y,Z Vertex 1 {m}
  1.93970084190369, 0, 6.40211296081543,  !- X,Y,Z Vertex 2 {m}
  2.99349188804626, 0, 6.40211296081543,  !- X,Y,Z Vertex 3 {m}
  3, 0, 6.90000009536743;                 !- X,Y,Z Vertex 4 {m}

Shading:Building:Detailed,
  shdSurface_21_0,                        !- Name
  ,                                       !- Transmittance Schedule Name
  ,                                       !- Number of Vertices
  4.04728317260742, 0, 6.90000009536743,  !- X,Y,Z Vertex 1 {m}
  4.04728317260742, 0, 6.40211296081543,  !- X,Y,Z Vertex 2 {m}
  2.99367189407349, 0, 6.41588497161865,  !- X,Y,Z Vertex 3 {m}
  3, 0, 6.90000009536743;                 !- X,Y,Z Vertex 4 {m}

Shading:Building:Detailed,
  shdSurface_2_0,                         !- Name
  ,                                       !- Transmittance Schedule Name
  ,                                       !- Number of Vertices
  6, 5.28551912307739, 6.52232074737549,  !- X,Y,Z Vertex 1 {m}
  6, 1.71448075771332, 6.52232074737549,  !- X,Y,Z Vertex 2 {m}
  6.67902040481567, 1.71448075771332, 6.52232074737549, !- X,Y,Z Vertex 3 {m}
  6.67902040481567, 5.28551912307739, 6.52232074737549; !- X,Y,Z Vertex 4 {m}

Shading:Building:Detailed,
  shdSurface_3_0,                         !- Name
  ,                                       !- Transmittance Schedule Name
  ,                                       !- Number of Vertices
  6, 1.71448075771332, 6.52232074737549,  !- X,Y,Z Vertex 1 {m}
  6, 1.71448075771332, 6.35256576538086,  !- X,Y,Z Vertex 2 {m}
  6.67902040481567, 1.71448075771332, 6.35256576538086, !- X,Y,Z Vertex 3 {m}
  6.67902040481567, 1.71448075771332, 6.52232074737549; !- X,Y,Z Vertex 4 {m}

Shading:Building:Detailed,
  shdSurface_4_0,                         !- Name
  ,                                       !- Transmittance Schedule Name
  ,                                       !- Number of Vertices
  6, 5.28551912307739, 6.52232074737549,  !- X,Y,Z Vertex 1 {m}
  6, 5.28551912307739, 6.35256576538086,  !- X,Y,Z Vertex 2 {m}
  6, 1.71448075771332, 6.35256576538086,  !- X,Y,Z Vertex 3 {m}
  6, 1.71448075771332, 6.52232074737549;  !- X,Y,Z Vertex 4 {m}

Shading:Building:Detailed,
  shdSurface_5_0,                         !- Name
  ,                                       !- Transmittance Schedule Name
  ,                                       !- Number of Vertices
  6.67902040481567, 1.71448075771332, 6.52232074737549, !- X,Y,Z Vertex 1 {m}
  6.67902040481567, 1.71448075771332, 6.35256576538086, !- X,Y,Z Vertex 2 {m}
  6.67902040481567, 5.28551912307739, 6.35256576538086, !- X,Y,Z Vertex 3 {m}
  6.67902040481567, 5.28551912307739, 6.52232074737549; !- X,Y,Z Vertex 4 {m}

Shading:Building:Detailed,
  shdSurface_6_0,                         !- Name
  ,                                       !- Transmittance Schedule Name
  ,                                       !- Number of Vertices
  0, 1.71448075771332, 6.35256576538086,  !- X,Y,Z Vertex 1 {m}
  -0.67902022600174, 1.71448075771332, 6.35256576538086, !- X,Y,Z Vertex 2 {m}
  -0.67902022600174, 5.28551912307739, 6.35256576538086, !- X,Y,Z Vertex 3 {m}
  0, 5.28551912307739, 6.35256576538086;  !- X,Y,Z Vertex 4 {m}

Shading:Building:Detailed,
  shdSurface_7_0,                         !- Name
  ,                                       !- Transmittance Schedule Name
  ,                                       !- Number of Vertices
  0, 5.28551912307739, 6.52232074737549,  !- X,Y,Z Vertex 1 {m}
  0, 5.28551912307739, 6.35256576538086,  !- X,Y,Z Vertex 2 {m}
  -0.67902022600174, 5.28551912307739, 6.35256576538086, !- X,Y,Z Vertex 3 {m}
  -0.67902022600174, 5.28551912307739, 6.52232074737549; !- X,Y,Z Vertex 4 {m}

Shading:Building:Detailed,
  shdSurface_8_0,                         !- Name
  ,                                       !- Transmittance Schedule Name
  ,                                       !- Number of Vertices
  -0.67902022600174, 5.28551912307739, 6.52232074737549, !- X,Y,Z Vertex 1 {m}
  -0.67902022600174, 1.71448075771332, 6.52232074737549, !- X,Y,Z Vertex 2 {m}
  0, 1.71448075771332, 6.52232074737549,  !- X,Y,Z Vertex 3 {m}
  0, 5.28551912307739, 6.52232074737549;  !- X,Y,Z Vertex 4 {m}

Shading:Building:Detailed,
  shdSurface_9_0,                         !- Name
  ,                                       !- Transmittance Schedule Name
  ,                                       !- Number of Vertices
  -0.67902022600174, 1.71448075771332, 6.52232074737549, !- X,Y,Z Vertex 1 {m}
  -0.67902022600174, 1.71448075771332, 6.35256576538086, !- X,Y,Z Vertex 2 {m}
  0, 1.71448075771332, 6.35256576538086,  !- X,Y,Z Vertex 3 {m}
  0, 1.71448075771332, 6.52232074737549;  !- X,Y,Z Vertex 4 {m}

Zone,
  2ndflo,                                 !- Name
  ,                                       !- Direction of Relative North {deg}
  ,                                       !- X Origin {m}
  ,                                       !- Y Origin {m}
  ,                                       !- Z Origin {m}
  ,                                       !- Type
  ,                                       !- Multiplier
  ,                                       !- Ceiling Height {m}
  ,                                       !- Volume {m3}
  ,                                       !- Floor Area {m2}
  ,                                       !- Zone Inside Convection Algorithm
  ;                                       !- Zone Outside Convection Algorithm

BuildingSurface:Detailed,
  2ndflo_Srf_0,                           !- Name
  Wall,                                   !- Surface Type
  OPTIMUM WALL CONSTRUCTION,              !- Construction Name
  2ndflo,                                 !- Zone Name
  Outdoors,                               !- Outside Boundary Condition
  ,                                       !- Outside Boundary Condition Object
  Sunexposed,                             !- Sun Exposure
  Windexposed,                            !- Wind Exposure
  ,                                       !- View Factor to Ground
  ,                                       !- Number of Vertices
  0, 0, 6.90000009536743,                 !- X,Y,Z Vertex 1 {m}
  0, 0, 3.59999990463257,                 !- X,Y,Z Vertex 2 {m}
  6, 0, 3.59999990463257,                 !- X,Y,Z Vertex 3 {m}
  6, 0, 6.90000009536743;                 !- X,Y,Z Vertex 4 {m}

FenestrationSurface:Detailed,
  2ndopaquedoor1_glzP_0,                  !- Name
  Window,                                 !- Surface Type
  opaquedoor,                             !- Construction Name
  2ndflo_Srf_0,                           !- Building Surface Name
  ,                                       !- Outside Boundary Condition Object
  ,                                       !- View Factor to Ground
  ,                                       !- Frame and Divider Name
  ,                                       !- Multiplier
  ,                                       !- Number of Vertices
  2.99674606323242, 0, 5.00105667114258,  !- X,Y,Z Vertex 1 {m}
  2.99349188804626, 0, 6.40211296081543,  !- X,Y,Z Vertex 2 {m}
  1.93970084190369, 0, 6.40211296081543;  !- X,Y,Z Vertex 3 {m}

FenestrationSurface:Detailed,
  2ndopaquedoor1_glzP_2,                  !- Name
  GlassDoor,                              !- Surface Type
  opaquedoor,                             !- Construction Name
  2ndflo_Srf_0,                           !- Building Surface Name
  ,                                       !- Outside Boundary Condition Object
  ,                                       !- View Factor to Ground
  ,                                       !- Frame and Divider Name
  ,                                       !- Multiplier
  ,                                       !- Number of Vertices
  3, 0, 3.59999990463257,                 !- X,Y,Z Vertex 1 {m}
  2.99674606323242, 0, 5.00105667114258,  !- X,Y,Z Vertex 2 {m}
  1.93970084190369, 0, 5.00105667114258;  !- X,Y,Z Vertex 3 {m}

FenestrationSurface:Detailed,
  2ndopaquedoor1_glzP_3,                  !- Name
  GlassDoor,                              !- Surface Type
  opaquedoor,                             !- Construction Name
  2ndflo_Srf_0,                           !- Building Surface Name
  ,                                       !- Outside Boundary Condition Object
  ,                                       !- View Factor to Ground
  ,                                       !- Frame and Divider Name
  ,                                       !- Multiplier
  ,                                       !- Number of Vertices
  3, 0, 3.59999990463257,                 !- X,Y,Z Vertex 1 {m}
  1.93970084190369, 0, 5.00105667114258,  !- X,Y,Z Vertex 2 {m}
  1.93970084190369, 0, 3.59999990463257;  !- X,Y,Z Vertex 3 {m}

FenestrationSurface:Detailed,
  2ndopaquedoor1_glzP_4,                  !- Name
  GlassDoor,                              !- Surface Type
  opaquedoor,                             !- Construction Name
  2ndflo_Srf_0,                           !- Building Surface Name
  ,                                       !- Outside Boundary Condition Object
  ,                                       !- View Factor to Ground
  ,                                       !- Frame and Divider Name
  ,                                       !- Multiplier
  ,                                       !- Number of Vertices
  3, 0, 6.40211296081543,                 !- X,Y,Z Vertex 1 {m}
  3, 0, 3.59999990463257,                 !- X,Y,Z Vertex 2 {m}
  4.04728317260742, 0, 3.59999990463257,  !- X,Y,Z Vertex 3 {m}
  4.04728317260742, 0, 6.40211296081543;  !- X,Y,Z Vertex 4 {m}

FenestrationSurface:Detailed,
  2ndopaquedoor2_glzP_1,                  !- Name
  Window,                                 !- Surface Type
  opaquedoor,                             !- Construction Name
  2ndflo_Srf_0,                           !- Building Surface Name
  ,                                       !- Outside Boundary Condition Object
  ,                                       !- View Factor to Ground
  ,                                       !- Frame and Divider Name
  ,                                       !- Multiplier
  ,                                       !- Number of Vertices
  2.99674606323242, 0, 5.00105667114258,  !- X,Y,Z Vertex 1 {m}
  1.93970084190369, 0, 6.40211296081543,  !- X,Y,Z Vertex 2 {m}
  1.93970084190369, 0, 5.00105667114258;  !- X,Y,Z Vertex 3 {m}

BuildingSurface:Detailed,
  2ndflo_Srf_1,                           !- Name
  Wall,                                   !- Surface Type
  OPTIMUM WALL CONSTRUCTION,              !- Construction Name
  2ndflo,                                 !- Zone Name
  Outdoors,                               !- Outside Boundary Condition
  ,                                       !- Outside Boundary Condition Object
  Sunexposed,                             !- Sun Exposure
  Windexposed,                            !- Wind Exposure
  ,                                       !- View Factor to Ground
  ,                                       !- Number of Vertices
  6, 0, 6.90000009536743,                 !- X,Y,Z Vertex 1 {m}